* NGSPICE file created from spi_slave.ext - technology: sky130A

* Black-box entry subcircuit for sky130_fd_sc_hd__decap_6 abstract view
.subckt sky130_fd_sc_hd__decap_6 VGND VNB VPB VPWR
.ends

* Black-box entry subcircuit for sky130_fd_sc_hd__decap_12 abstract view
.subckt sky130_fd_sc_hd__decap_12 VGND VNB VPB VPWR
.ends

* Black-box entry subcircuit for sky130_fd_sc_hd__fill_1 abstract view
.subckt sky130_fd_sc_hd__fill_1 VGND VNB VPB VPWR
.ends

* Black-box entry subcircuit for sky130_fd_sc_hd__decap_8 abstract view
.subckt sky130_fd_sc_hd__decap_8 VGND VNB VPB VPWR
.ends

* Black-box entry subcircuit for sky130_fd_sc_hd__decap_4 abstract view
.subckt sky130_fd_sc_hd__decap_4 VGND VNB VPB VPWR
.ends

* Black-box entry subcircuit for sky130_fd_sc_hd__clkbuf_2 abstract view
.subckt sky130_fd_sc_hd__clkbuf_2 A VGND VNB VPB VPWR X
.ends

* Black-box entry subcircuit for sky130_fd_sc_hd__tapvpwrvgnd_1 abstract view
.subckt sky130_fd_sc_hd__tapvpwrvgnd_1 VGND VPWR
.ends

* Black-box entry subcircuit for sky130_fd_sc_hd__decap_3 abstract view
.subckt sky130_fd_sc_hd__decap_3 VGND VNB VPB VPWR
.ends

* Black-box entry subcircuit for sky130_fd_sc_hd__fill_2 abstract view
.subckt sky130_fd_sc_hd__fill_2 VGND VNB VPB VPWR
.ends

* Black-box entry subcircuit for sky130_fd_sc_hd__dfrtp_1 abstract view
.subckt sky130_fd_sc_hd__dfrtp_1 CLK D RESET_B VGND VNB VPB VPWR Q
.ends

* Black-box entry subcircuit for sky130_fd_sc_hd__clkbuf_1 abstract view
.subckt sky130_fd_sc_hd__clkbuf_1 A VGND VNB VPB VPWR X
.ends

* Black-box entry subcircuit for sky130_fd_sc_hd__o22a_1 abstract view
.subckt sky130_fd_sc_hd__o22a_1 A1 A2 B1 B2 VGND VNB VPB VPWR X
.ends

* Black-box entry subcircuit for sky130_fd_sc_hd__dlymetal6s2s_1 abstract view
.subckt sky130_fd_sc_hd__dlymetal6s2s_1 A VGND VNB VPB VPWR X
.ends

* Black-box entry subcircuit for sky130_fd_sc_hd__clkbuf_16 abstract view
.subckt sky130_fd_sc_hd__clkbuf_16 A VGND VNB VPB VPWR X
.ends

* Black-box entry subcircuit for sky130_fd_sc_hd__inv_2 abstract view
.subckt sky130_fd_sc_hd__inv_2 A VGND VNB VPB VPWR Y
.ends

* Black-box entry subcircuit for sky130_fd_sc_hd__buf_1 abstract view
.subckt sky130_fd_sc_hd__buf_1 A VGND VNB VPB VPWR X
.ends

.subckt spi_slave VGND VPWR data[0] data[1] data[2] data[3] data[4] data[5] data[6]
+ data[7] reset sclk sdi ss
XFILLER_22_133 VGND VGND VPWR VPWR sky130_fd_sc_hd__decap_6
XFILLER_26_85 VGND VGND VPWR VPWR sky130_fd_sc_hd__decap_12
XFILLER_26_41 VGND VGND VPWR VPWR sky130_fd_sc_hd__decap_12
XFILLER_9_137 VGND VGND VPWR VPWR sky130_fd_sc_hd__decap_12
XFILLER_13_111 VGND VGND VPWR VPWR sky130_fd_sc_hd__fill_1
XFILLER_12_65 VGND VGND VPWR VPWR sky130_fd_sc_hd__decap_12
XFILLER_2_132 VGND VGND VPWR VPWR sky130_fd_sc_hd__decap_8
XFILLER_0_57 VGND VGND VPWR VPWR sky130_fd_sc_hd__decap_4
XFILLER_9_55 VGND VGND VPWR VPWR sky130_fd_sc_hd__fill_1
XFILLER_18_97 VGND VGND VPWR VPWR sky130_fd_sc_hd__decap_12
XFILLER_18_53 VGND VGND VPWR VPWR sky130_fd_sc_hd__decap_12
XFILLER_29_85 VGND VGND VPWR VPWR sky130_fd_sc_hd__decap_12
XFILLER_29_41 VGND VGND VPWR VPWR sky130_fd_sc_hd__decap_12
XFILLER_28_161 VGND VGND VPWR VPWR sky130_fd_sc_hd__decap_12
XFILLER_20_65 VGND VGND VPWR VPWR sky130_fd_sc_hd__decap_12
XFILLER_26_109 VGND VGND VPWR VPWR sky130_fd_sc_hd__decap_12
XFILLER_19_161 VGND VGND VPWR VPWR sky130_fd_sc_hd__decap_6
XFILLER_13_3 VGND VGND VPWR VPWR sky130_fd_sc_hd__decap_12
XFILLER_16_153 VGND VGND VPWR VPWR sky130_fd_sc_hd__decap_12
Xoutput7 _43_/Q VGND VGND VPWR VPWR data[3] sky130_fd_sc_hd__clkbuf_2
XTAP_145 VGND VPWR sky130_fd_sc_hd__tapvpwrvgnd_1
XTAP_134 VGND VPWR sky130_fd_sc_hd__tapvpwrvgnd_1
XTAP_123 VGND VPWR sky130_fd_sc_hd__tapvpwrvgnd_1
XTAP_112 VGND VPWR sky130_fd_sc_hd__tapvpwrvgnd_1
XTAP_101 VGND VPWR sky130_fd_sc_hd__tapvpwrvgnd_1
XFILLER_26_97 VGND VGND VPWR VPWR sky130_fd_sc_hd__decap_12
XFILLER_26_53 VGND VGND VPWR VPWR sky130_fd_sc_hd__decap_12
XFILLER_13_167 VGND VGND VPWR VPWR sky130_fd_sc_hd__fill_1
XFILLER_3_57 VGND VGND VPWR VPWR sky130_fd_sc_hd__decap_4
XFILLER_9_105 VGND VGND VPWR VPWR sky130_fd_sc_hd__decap_6
XFILLER_9_149 VGND VGND VPWR VPWR sky130_fd_sc_hd__decap_12
XFILLER_6_108 VGND VGND VPWR VPWR sky130_fd_sc_hd__decap_8
XFILLER_12_77 VGND VGND VPWR VPWR sky130_fd_sc_hd__decap_6
XFILLER_0_69 VGND VGND VPWR VPWR sky130_fd_sc_hd__decap_4
XFILLER_18_65 VGND VGND VPWR VPWR sky130_fd_sc_hd__decap_12
XFILLER_29_118 VGND VGND VPWR VPWR sky130_fd_sc_hd__decap_12
XFILLER_29_97 VGND VGND VPWR VPWR sky130_fd_sc_hd__decap_12
XFILLER_29_53 VGND VGND VPWR VPWR sky130_fd_sc_hd__decap_3
XFILLER_20_77 VGND VGND VPWR VPWR sky130_fd_sc_hd__decap_6
XFILLER_28_173 VGND VGND VPWR VPWR sky130_fd_sc_hd__fill_2
XFILLER_15_55 VGND VGND VPWR VPWR sky130_fd_sc_hd__fill_1
XFILLER_16_165 VGND VGND VPWR VPWR sky130_fd_sc_hd__decap_8
XFILLER_16_121 VGND VGND VPWR VPWR sky130_fd_sc_hd__decap_12
Xoutput10 _46_/Q VGND VGND VPWR VPWR data[6] sky130_fd_sc_hd__clkbuf_2
Xoutput8 _44_/Q VGND VGND VPWR VPWR data[4] sky130_fd_sc_hd__clkbuf_2
XTAP_146 VGND VPWR sky130_fd_sc_hd__tapvpwrvgnd_1
XTAP_135 VGND VPWR sky130_fd_sc_hd__tapvpwrvgnd_1
XTAP_124 VGND VPWR sky130_fd_sc_hd__tapvpwrvgnd_1
XTAP_113 VGND VPWR sky130_fd_sc_hd__tapvpwrvgnd_1
XTAP_102 VGND VPWR sky130_fd_sc_hd__tapvpwrvgnd_1
XFILLER_26_65 VGND VGND VPWR VPWR sky130_fd_sc_hd__decap_12
XFILLER_13_113 VGND VGND VPWR VPWR sky130_fd_sc_hd__decap_12
XFILLER_3_69 VGND VGND VPWR VPWR sky130_fd_sc_hd__decap_4
XFILLER_23_55 VGND VGND VPWR VPWR sky130_fd_sc_hd__fill_1
XFILLER_3_3 VGND VGND VPWR VPWR sky130_fd_sc_hd__decap_12
XFILLER_2_145 VGND VGND VPWR VPWR sky130_fd_sc_hd__decap_12
XFILLER_0_37 VGND VGND VPWR VPWR sky130_fd_sc_hd__decap_8
X_47_ _47_/CLK _47_/D _39_/X VGND VGND VPWR VPWR _47_/Q sky130_fd_sc_hd__dfrtp_1
XFILLER_9_57 VGND VGND VPWR VPWR sky130_fd_sc_hd__decap_12
XFILLER_18_77 VGND VGND VPWR VPWR sky130_fd_sc_hd__decap_6
XFILLER_28_141 VGND VGND VPWR VPWR sky130_fd_sc_hd__decap_12
XFILLER_25_111 VGND VGND VPWR VPWR sky130_fd_sc_hd__fill_1
XFILLER_16_133 VGND VGND VPWR VPWR sky130_fd_sc_hd__decap_6
Xoutput9 _45_/Q VGND VGND VPWR VPWR data[5] sky130_fd_sc_hd__clkbuf_2
Xoutput11 _47_/Q VGND VGND VPWR VPWR data[7] sky130_fd_sc_hd__clkbuf_2
XTAP_147 VGND VPWR sky130_fd_sc_hd__tapvpwrvgnd_1
XTAP_136 VGND VPWR sky130_fd_sc_hd__tapvpwrvgnd_1
XTAP_125 VGND VPWR sky130_fd_sc_hd__tapvpwrvgnd_1
XTAP_114 VGND VPWR sky130_fd_sc_hd__tapvpwrvgnd_1
XTAP_103 VGND VPWR sky130_fd_sc_hd__tapvpwrvgnd_1
XFILLER_26_77 VGND VGND VPWR VPWR sky130_fd_sc_hd__decap_6
XFILLER_13_169 VGND VGND VPWR VPWR sky130_fd_sc_hd__decap_6
XFILLER_13_125 VGND VGND VPWR VPWR sky130_fd_sc_hd__decap_12
XFILLER_3_15 VGND VGND VPWR VPWR sky130_fd_sc_hd__decap_12
XFILLER_8_173 VGND VGND VPWR VPWR sky130_fd_sc_hd__fill_2
XFILLER_10_139 VGND VGND VPWR VPWR sky130_fd_sc_hd__fill_1
XFILLER_4_91 VGND VGND VPWR VPWR sky130_fd_sc_hd__fill_1
XFILLER_2_157 VGND VGND VPWR VPWR sky130_fd_sc_hd__decap_12
XFILLER_0_27 VGND VGND VPWR VPWR sky130_fd_sc_hd__fill_1
XFILLER_29_3 VGND VGND VPWR VPWR sky130_fd_sc_hd__decap_8
X_46_ _47_/CLK _46_/D _33_/A VGND VGND VPWR VPWR _46_/Q sky130_fd_sc_hd__dfrtp_1
XFILLER_9_69 VGND VGND VPWR VPWR sky130_fd_sc_hd__decap_12
XFILLER_29_109 VGND VGND VPWR VPWR sky130_fd_sc_hd__decap_3
X_29_ _33_/A VGND VGND VPWR VPWR _29_/X sky130_fd_sc_hd__clkbuf_1
XFILLER_29_11 VGND VGND VPWR VPWR sky130_fd_sc_hd__decap_3
XFILLER_28_153 VGND VGND VPWR VPWR sky130_fd_sc_hd__decap_4
XFILLER_6_15 VGND VGND VPWR VPWR sky130_fd_sc_hd__decap_12
XFILLER_25_167 VGND VGND VPWR VPWR sky130_fd_sc_hd__fill_1
XFILLER_15_57 VGND VGND VPWR VPWR sky130_fd_sc_hd__decap_12
XTAP_148 VGND VPWR sky130_fd_sc_hd__tapvpwrvgnd_1
XTAP_137 VGND VPWR sky130_fd_sc_hd__tapvpwrvgnd_1
XTAP_126 VGND VPWR sky130_fd_sc_hd__tapvpwrvgnd_1
XTAP_115 VGND VPWR sky130_fd_sc_hd__tapvpwrvgnd_1
XTAP_104 VGND VPWR sky130_fd_sc_hd__tapvpwrvgnd_1
XFILLER_11_3 VGND VGND VPWR VPWR sky130_fd_sc_hd__decap_12
XFILLER_3_27 VGND VGND VPWR VPWR sky130_fd_sc_hd__decap_12
XFILLER_13_137 VGND VGND VPWR VPWR sky130_fd_sc_hd__decap_12
XFILLER_8_141 VGND VGND VPWR VPWR sky130_fd_sc_hd__decap_12
XFILLER_23_57 VGND VGND VPWR VPWR sky130_fd_sc_hd__decap_12
XFILLER_2_169 VGND VGND VPWR VPWR sky130_fd_sc_hd__decap_6
XFILLER_9_15 VGND VGND VPWR VPWR sky130_fd_sc_hd__decap_12
X_45_ _47_/CLK _45_/D _26_/X VGND VGND VPWR VPWR _45_/Q sky130_fd_sc_hd__dfrtp_1
X_28_ _27_/X _45_/Q _21_/X _44_/Q VGND VGND VPWR VPWR _45_/D sky130_fd_sc_hd__o22a_1
XFILLER_1_82 VGND VGND VPWR VPWR sky130_fd_sc_hd__decap_4
XFILLER_28_121 VGND VGND VPWR VPWR sky130_fd_sc_hd__decap_12
XFILLER_6_27 VGND VGND VPWR VPWR sky130_fd_sc_hd__fill_1
XFILLER_25_113 VGND VGND VPWR VPWR sky130_fd_sc_hd__decap_12
XFILLER_15_69 VGND VGND VPWR VPWR sky130_fd_sc_hd__decap_12
XTAP_149 VGND VPWR sky130_fd_sc_hd__tapvpwrvgnd_1
XTAP_138 VGND VPWR sky130_fd_sc_hd__tapvpwrvgnd_1
XTAP_127 VGND VPWR sky130_fd_sc_hd__tapvpwrvgnd_1
XTAP_116 VGND VPWR sky130_fd_sc_hd__tapvpwrvgnd_1
XTAP_105 VGND VPWR sky130_fd_sc_hd__tapvpwrvgnd_1
XFILLER_7_81 VGND VGND VPWR VPWR sky130_fd_sc_hd__decap_12
XFILLER_3_39 VGND VGND VPWR VPWR sky130_fd_sc_hd__decap_12
XFILLER_13_105 VGND VGND VPWR VPWR sky130_fd_sc_hd__decap_6
XFILLER_13_149 VGND VGND VPWR VPWR sky130_fd_sc_hd__decap_12
XFILLER_8_153 VGND VGND VPWR VPWR sky130_fd_sc_hd__decap_12
XFILLER_12_15 VGND VGND VPWR VPWR sky130_fd_sc_hd__decap_12
XFILLER_5_123 VGND VGND VPWR VPWR sky130_fd_sc_hd__decap_12
XFILLER_5_167 VGND VGND VPWR VPWR sky130_fd_sc_hd__fill_1
XFILLER_23_69 VGND VGND VPWR VPWR sky130_fd_sc_hd__decap_12
XFILLER_0_29 VGND VGND VPWR VPWR sky130_fd_sc_hd__decap_4
XFILLER_9_27 VGND VGND VPWR VPWR sky130_fd_sc_hd__decap_12
X_44_ _44_/CLK _44_/D _29_/X VGND VGND VPWR VPWR _44_/Q sky130_fd_sc_hd__dfrtp_1
XFILLER_1_3 VGND VGND VPWR VPWR sky130_fd_sc_hd__decap_12
XFILLER_1_61 VGND VGND VPWR VPWR sky130_fd_sc_hd__fill_1
X_27_ _27_/A VGND VGND VPWR VPWR _27_/X sky130_fd_sc_hd__dlymetal6s2s_1
XFILLER_29_57 VGND VGND VPWR VPWR sky130_fd_sc_hd__decap_12
XFILLER_28_133 VGND VGND VPWR VPWR sky130_fd_sc_hd__decap_6
XFILLER_20_15 VGND VGND VPWR VPWR sky130_fd_sc_hd__decap_12
XFILLER_19_111 VGND VGND VPWR VPWR sky130_fd_sc_hd__fill_1
XFILLER_25_169 VGND VGND VPWR VPWR sky130_fd_sc_hd__decap_6
XFILLER_25_125 VGND VGND VPWR VPWR sky130_fd_sc_hd__decap_12
XFILLER_15_15 VGND VGND VPWR VPWR sky130_fd_sc_hd__decap_12
XTAP_139 VGND VPWR sky130_fd_sc_hd__tapvpwrvgnd_1
XFILLER_22_139 VGND VGND VPWR VPWR sky130_fd_sc_hd__fill_1
XTAP_128 VGND VPWR sky130_fd_sc_hd__tapvpwrvgnd_1
XTAP_117 VGND VPWR sky130_fd_sc_hd__tapvpwrvgnd_1
XPHY_0 VGND VGND VPWR VPWR sky130_fd_sc_hd__decap_3
XFILLER_7_93 VGND VGND VPWR VPWR sky130_fd_sc_hd__decap_12
XTAP_106 VGND VPWR sky130_fd_sc_hd__tapvpwrvgnd_1
XFILLER_21_161 VGND VGND VPWR VPWR sky130_fd_sc_hd__decap_6
Xclkbuf_1_0__f_sclk clkbuf_0_sclk/X VGND VGND VPWR VPWR _44_/CLK sky130_fd_sc_hd__clkbuf_16
XFILLER_8_121 VGND VGND VPWR VPWR sky130_fd_sc_hd__decap_12
XFILLER_8_165 VGND VGND VPWR VPWR sky130_fd_sc_hd__decap_8
XFILLER_10_109 VGND VGND VPWR VPWR sky130_fd_sc_hd__decap_12
XFILLER_12_27 VGND VGND VPWR VPWR sky130_fd_sc_hd__fill_1
XFILLER_5_135 VGND VGND VPWR VPWR sky130_fd_sc_hd__decap_12
XFILLER_23_15 VGND VGND VPWR VPWR sky130_fd_sc_hd__decap_12
XFILLER_9_39 VGND VGND VPWR VPWR sky130_fd_sc_hd__decap_12
XFILLER_13_81 VGND VGND VPWR VPWR sky130_fd_sc_hd__decap_12
X_43_ _44_/CLK _43_/D _31_/X VGND VGND VPWR VPWR _43_/Q sky130_fd_sc_hd__dfrtp_1
XFILLER_18_15 VGND VGND VPWR VPWR sky130_fd_sc_hd__decap_12
XFILLER_27_3 VGND VGND VPWR VPWR sky130_fd_sc_hd__decap_12
XFILLER_29_69 VGND VGND VPWR VPWR sky130_fd_sc_hd__decap_12
XFILLER_20_27 VGND VGND VPWR VPWR sky130_fd_sc_hd__fill_1
XFILLER_1_51 VGND VGND VPWR VPWR sky130_fd_sc_hd__decap_4
X_26_ _33_/A VGND VGND VPWR VPWR _26_/X sky130_fd_sc_hd__clkbuf_1
XFILLER_19_167 VGND VGND VPWR VPWR sky130_fd_sc_hd__fill_1
XFILLER_6_29 VGND VGND VPWR VPWR sky130_fd_sc_hd__decap_12
XFILLER_25_137 VGND VGND VPWR VPWR sky130_fd_sc_hd__decap_12
XFILLER_15_27 VGND VGND VPWR VPWR sky130_fd_sc_hd__decap_12
XTAP_129 VGND VPWR sky130_fd_sc_hd__tapvpwrvgnd_1
XFILLER_21_81 VGND VGND VPWR VPWR sky130_fd_sc_hd__decap_12
XTAP_118 VGND VPWR sky130_fd_sc_hd__tapvpwrvgnd_1
XPHY_1 VGND VGND VPWR VPWR sky130_fd_sc_hd__decap_3
XTAP_107 VGND VPWR sky130_fd_sc_hd__tapvpwrvgnd_1
XFILLER_26_15 VGND VGND VPWR VPWR sky130_fd_sc_hd__decap_12
XFILLER_8_133 VGND VGND VPWR VPWR sky130_fd_sc_hd__decap_6
XFILLER_12_173 VGND VGND VPWR VPWR sky130_fd_sc_hd__fill_2
XFILLER_5_147 VGND VGND VPWR VPWR sky130_fd_sc_hd__decap_12
XFILLER_5_169 VGND VGND VPWR VPWR sky130_fd_sc_hd__decap_6
XFILLER_23_27 VGND VGND VPWR VPWR sky130_fd_sc_hd__decap_12
XFILLER_1_150 VGND VGND VPWR VPWR sky130_fd_sc_hd__decap_12
X_42_ _44_/CLK _42_/D _33_/X VGND VGND VPWR VPWR _42_/Q sky130_fd_sc_hd__dfrtp_1
XFILLER_13_93 VGND VGND VPWR VPWR sky130_fd_sc_hd__decap_12
XFILLER_18_27 VGND VGND VPWR VPWR sky130_fd_sc_hd__fill_1
XFILLER_29_26 VGND VGND VPWR VPWR sky130_fd_sc_hd__fill_2
X_25_ _46_/Q _27_/A _21_/X _45_/Q VGND VGND VPWR VPWR _46_/D sky130_fd_sc_hd__o22a_1
XFILLER_28_157 VGND VGND VPWR VPWR sky130_fd_sc_hd__fill_1
XFILLER_19_113 VGND VGND VPWR VPWR sky130_fd_sc_hd__decap_12
XFILLER_10_83 VGND VGND VPWR VPWR sky130_fd_sc_hd__fill_1
XFILLER_25_105 VGND VGND VPWR VPWR sky130_fd_sc_hd__decap_6
XFILLER_19_81 VGND VGND VPWR VPWR sky130_fd_sc_hd__decap_12
XFILLER_25_149 VGND VGND VPWR VPWR sky130_fd_sc_hd__decap_12
XFILLER_15_39 VGND VGND VPWR VPWR sky130_fd_sc_hd__decap_12
XFILLER_21_93 VGND VGND VPWR VPWR sky130_fd_sc_hd__decap_12
XTAP_119 VGND VPWR sky130_fd_sc_hd__tapvpwrvgnd_1
XTAP_108 VGND VPWR sky130_fd_sc_hd__tapvpwrvgnd_1
XPHY_2 VGND VGND VPWR VPWR sky130_fd_sc_hd__decap_3
XFILLER_26_27 VGND VGND VPWR VPWR sky130_fd_sc_hd__fill_1
XFILLER_7_51 VGND VGND VPWR VPWR sky130_fd_sc_hd__decap_4
XFILLER_12_141 VGND VGND VPWR VPWR sky130_fd_sc_hd__decap_12
XFILLER_12_29 VGND VGND VPWR VPWR sky130_fd_sc_hd__decap_12
XFILLER_5_159 VGND VGND VPWR VPWR sky130_fd_sc_hd__decap_8
XFILLER_27_81 VGND VGND VPWR VPWR sky130_fd_sc_hd__decap_12
XFILLER_4_41 VGND VGND VPWR VPWR sky130_fd_sc_hd__decap_12
XFILLER_4_85 VGND VGND VPWR VPWR sky130_fd_sc_hd__decap_6
XFILLER_23_39 VGND VGND VPWR VPWR sky130_fd_sc_hd__decap_12
XFILLER_1_162 VGND VGND VPWR VPWR sky130_fd_sc_hd__decap_6
X_41_ _44_/CLK _41_/D _35_/X VGND VGND VPWR VPWR _41_/Q sky130_fd_sc_hd__dfrtp_1
XFILLER_20_29 VGND VGND VPWR VPWR sky130_fd_sc_hd__decap_12
X_24_ _39_/A VGND VGND VPWR VPWR _33_/A sky130_fd_sc_hd__dlymetal6s2s_1
XFILLER_19_169 VGND VGND VPWR VPWR sky130_fd_sc_hd__decap_6
XFILLER_19_125 VGND VGND VPWR VPWR sky130_fd_sc_hd__decap_12
XFILLER_19_93 VGND VGND VPWR VPWR sky130_fd_sc_hd__decap_12
XFILLER_16_139 VGND VGND VPWR VPWR sky130_fd_sc_hd__fill_1
XTAP_109 VGND VPWR sky130_fd_sc_hd__tapvpwrvgnd_1
XFILLER_22_109 VGND VGND VPWR VPWR sky130_fd_sc_hd__decap_12
XFILLER_15_161 VGND VGND VPWR VPWR sky130_fd_sc_hd__decap_6
XPHY_3 VGND VGND VPWR VPWR sky130_fd_sc_hd__decap_3
XFILLER_16_83 VGND VGND VPWR VPWR sky130_fd_sc_hd__fill_1
XFILLER_12_153 VGND VGND VPWR VPWR sky130_fd_sc_hd__decap_12
XFILLER_27_93 VGND VGND VPWR VPWR sky130_fd_sc_hd__decap_12
XFILLER_4_160 VGND VGND VPWR VPWR sky130_fd_sc_hd__decap_12
XFILLER_2_119 VGND VGND VPWR VPWR sky130_fd_sc_hd__decap_6
XFILLER_4_53 VGND VGND VPWR VPWR sky130_fd_sc_hd__decap_4
X_40_ _47_/CLK _40_/D _37_/X VGND VGND VPWR VPWR _40_/Q sky130_fd_sc_hd__dfrtp_1
XFILLER_13_51 VGND VGND VPWR VPWR sky130_fd_sc_hd__decap_4
XFILLER_18_29 VGND VGND VPWR VPWR sky130_fd_sc_hd__decap_12
X_23_ _23_/A VGND VGND VPWR VPWR _39_/A sky130_fd_sc_hd__inv_2
XFILLER_24_83 VGND VGND VPWR VPWR sky130_fd_sc_hd__fill_1
XFILLER_19_137 VGND VGND VPWR VPWR sky130_fd_sc_hd__decap_12
XFILLER_10_41 VGND VGND VPWR VPWR sky130_fd_sc_hd__decap_12
XFILLER_10_85 VGND VGND VPWR VPWR sky130_fd_sc_hd__decap_12
XFILLER_25_3 VGND VGND VPWR VPWR sky130_fd_sc_hd__decap_12
XFILLER_24_173 VGND VGND VPWR VPWR sky130_fd_sc_hd__fill_2
XFILLER_21_51 VGND VGND VPWR VPWR sky130_fd_sc_hd__decap_4
XPHY_4 VGND VGND VPWR VPWR sky130_fd_sc_hd__decap_3
XFILLER_26_29 VGND VGND VPWR VPWR sky130_fd_sc_hd__decap_12
XFILLER_12_121 VGND VGND VPWR VPWR sky130_fd_sc_hd__decap_12
XFILLER_12_165 VGND VGND VPWR VPWR sky130_fd_sc_hd__decap_8
XFILLER_4_172 VGND VGND VPWR VPWR sky130_fd_sc_hd__decap_3
X_22_ _47_/Q _27_/A _46_/Q _21_/X VGND VGND VPWR VPWR _47_/D sky130_fd_sc_hd__o22a_1
XFILLER_1_55 VGND VGND VPWR VPWR sky130_fd_sc_hd__fill_1
XFILLER_29_29 VGND VGND VPWR VPWR sky130_fd_sc_hd__decap_12
XFILLER_29_18 VGND VGND VPWR VPWR sky130_fd_sc_hd__decap_8
XFILLER_19_149 VGND VGND VPWR VPWR sky130_fd_sc_hd__decap_12
XFILLER_19_105 VGND VGND VPWR VPWR sky130_fd_sc_hd__decap_6
XFILLER_19_51 VGND VGND VPWR VPWR sky130_fd_sc_hd__decap_4
XFILLER_10_53 VGND VGND VPWR VPWR sky130_fd_sc_hd__decap_12
XFILLER_10_97 VGND VGND VPWR VPWR sky130_fd_sc_hd__decap_12
XFILLER_18_3 VGND VGND VPWR VPWR sky130_fd_sc_hd__decap_12
XFILLER_24_141 VGND VGND VPWR VPWR sky130_fd_sc_hd__decap_12
XPHY_5 VGND VGND VPWR VPWR sky130_fd_sc_hd__decap_3
XFILLER_21_111 VGND VGND VPWR VPWR sky130_fd_sc_hd__fill_1
XFILLER_16_85 VGND VGND VPWR VPWR sky130_fd_sc_hd__decap_12
XFILLER_16_41 VGND VGND VPWR VPWR sky130_fd_sc_hd__decap_12
XFILLER_12_133 VGND VGND VPWR VPWR sky130_fd_sc_hd__decap_6
XFILLER_27_51 VGND VGND VPWR VPWR sky130_fd_sc_hd__decap_4
XFILLER_24_85 VGND VGND VPWR VPWR sky130_fd_sc_hd__decap_12
XFILLER_24_41 VGND VGND VPWR VPWR sky130_fd_sc_hd__decap_12
X_21_ _21_/A VGND VGND VPWR VPWR _21_/X sky130_fd_sc_hd__dlymetal6s2s_1
XFILLER_28_139 VGND VGND VPWR VPWR sky130_fd_sc_hd__fill_1
XFILLER_27_161 VGND VGND VPWR VPWR sky130_fd_sc_hd__decap_6
XFILLER_10_65 VGND VGND VPWR VPWR sky130_fd_sc_hd__decap_12
XFILLER_24_153 VGND VGND VPWR VPWR sky130_fd_sc_hd__decap_12
XFILLER_16_109 VGND VGND VPWR VPWR sky130_fd_sc_hd__decap_12
XPHY_6 VGND VGND VPWR VPWR sky130_fd_sc_hd__decap_3
XFILLER_7_55 VGND VGND VPWR VPWR sky130_fd_sc_hd__fill_1
XFILLER_21_167 VGND VGND VPWR VPWR sky130_fd_sc_hd__fill_1
XFILLER_16_97 VGND VGND VPWR VPWR sky130_fd_sc_hd__decap_12
XFILLER_16_53 VGND VGND VPWR VPWR sky130_fd_sc_hd__decap_12
XFILLER_5_108 VGND VGND VPWR VPWR sky130_fd_sc_hd__decap_4
XFILLER_4_78 VGND VGND VPWR VPWR sky130_fd_sc_hd__decap_6
XFILLER_4_141 VGND VGND VPWR VPWR sky130_fd_sc_hd__decap_4
XFILLER_8_3 VGND VGND VPWR VPWR sky130_fd_sc_hd__decap_12
XFILLER_24_97 VGND VGND VPWR VPWR sky130_fd_sc_hd__decap_12
XFILLER_24_53 VGND VGND VPWR VPWR sky130_fd_sc_hd__decap_12
XFILLER_1_57 VGND VGND VPWR VPWR sky130_fd_sc_hd__decap_4
X_20_ _21_/A VGND VGND VPWR VPWR _27_/A sky130_fd_sc_hd__inv_2
Xinput1 reset VGND VGND VPWR VPWR _23_/A sky130_fd_sc_hd__clkbuf_1
XTAP_90 VGND VPWR sky130_fd_sc_hd__tapvpwrvgnd_1
XFILLER_10_77 VGND VGND VPWR VPWR sky130_fd_sc_hd__decap_6
XFILLER_24_121 VGND VGND VPWR VPWR sky130_fd_sc_hd__decap_12
XFILLER_18_173 VGND VGND VPWR VPWR sky130_fd_sc_hd__fill_2
XFILLER_24_165 VGND VGND VPWR VPWR sky130_fd_sc_hd__decap_8
XPHY_7 VGND VGND VPWR VPWR sky130_fd_sc_hd__decap_3
XFILLER_23_3 VGND VGND VPWR VPWR sky130_fd_sc_hd__decap_12
XFILLER_21_113 VGND VGND VPWR VPWR sky130_fd_sc_hd__decap_12
XFILLER_16_65 VGND VGND VPWR VPWR sky130_fd_sc_hd__decap_12
XFILLER_8_139 VGND VGND VPWR VPWR sky130_fd_sc_hd__fill_1
XFILLER_7_161 VGND VGND VPWR VPWR sky130_fd_sc_hd__decap_6
XFILLER_4_57 VGND VGND VPWR VPWR sky130_fd_sc_hd__fill_1
XFILLER_4_120 VGND VGND VPWR VPWR sky130_fd_sc_hd__fill_1
XFILLER_4_131 VGND VGND VPWR VPWR sky130_fd_sc_hd__decap_8
XFILLER_13_55 VGND VGND VPWR VPWR sky130_fd_sc_hd__fill_1
XFILLER_24_65 VGND VGND VPWR VPWR sky130_fd_sc_hd__decap_12
Xinput2 sdi VGND VGND VPWR VPWR _38_/B2 sky130_fd_sc_hd__buf_1
XTAP_80 VGND VPWR sky130_fd_sc_hd__tapvpwrvgnd_1
XTAP_91 VGND VPWR sky130_fd_sc_hd__tapvpwrvgnd_1
XFILLER_18_141 VGND VGND VPWR VPWR sky130_fd_sc_hd__decap_12
XFILLER_24_133 VGND VGND VPWR VPWR sky130_fd_sc_hd__decap_6
XFILLER_21_55 VGND VGND VPWR VPWR sky130_fd_sc_hd__fill_1
XFILLER_16_3 VGND VGND VPWR VPWR sky130_fd_sc_hd__decap_12
XFILLER_15_111 VGND VGND VPWR VPWR sky130_fd_sc_hd__fill_1
XPHY_8 VGND VGND VPWR VPWR sky130_fd_sc_hd__decap_3
XFILLER_7_57 VGND VGND VPWR VPWR sky130_fd_sc_hd__decap_12
XFILLER_21_169 VGND VGND VPWR VPWR sky130_fd_sc_hd__decap_6
XFILLER_21_125 VGND VGND VPWR VPWR sky130_fd_sc_hd__decap_12
XFILLER_16_77 VGND VGND VPWR VPWR sky130_fd_sc_hd__decap_6
XFILLER_1_113 VGND VGND VPWR VPWR sky130_fd_sc_hd__decap_4
XFILLER_24_77 VGND VGND VPWR VPWR sky130_fd_sc_hd__decap_6
XFILLER_1_15 VGND VGND VPWR VPWR sky130_fd_sc_hd__decap_12
Xinput3 ss VGND VGND VPWR VPWR _21_/A sky130_fd_sc_hd__clkbuf_2
XFILLER_28_109 VGND VGND VPWR VPWR sky130_fd_sc_hd__decap_12
XTAP_70 VGND VPWR sky130_fd_sc_hd__tapvpwrvgnd_1
XTAP_81 VGND VPWR sky130_fd_sc_hd__tapvpwrvgnd_1
XTAP_92 VGND VPWR sky130_fd_sc_hd__tapvpwrvgnd_1
XFILLER_19_55 VGND VGND VPWR VPWR sky130_fd_sc_hd__fill_1
XFILLER_18_153 VGND VGND VPWR VPWR sky130_fd_sc_hd__decap_12
XFILLER_2_91 VGND VGND VPWR VPWR sky130_fd_sc_hd__fill_1
XFILLER_2_80 VGND VGND VPWR VPWR sky130_fd_sc_hd__decap_4
XFILLER_15_167 VGND VGND VPWR VPWR sky130_fd_sc_hd__fill_1
XPHY_9 VGND VGND VPWR VPWR sky130_fd_sc_hd__decap_3
XFILLER_7_69 VGND VGND VPWR VPWR sky130_fd_sc_hd__decap_12
XFILLER_21_137 VGND VGND VPWR VPWR sky130_fd_sc_hd__decap_12
XFILLER_27_55 VGND VGND VPWR VPWR sky130_fd_sc_hd__fill_1
XFILLER_4_15 VGND VGND VPWR VPWR sky130_fd_sc_hd__decap_12
XFILLER_13_57 VGND VGND VPWR VPWR sky130_fd_sc_hd__decap_12
XFILLER_1_169 VGND VGND VPWR VPWR sky130_fd_sc_hd__decap_6
XFILLER_1_27 VGND VGND VPWR VPWR sky130_fd_sc_hd__decap_12
XFILLER_6_3 VGND VGND VPWR VPWR sky130_fd_sc_hd__decap_12
XTAP_71 VGND VPWR sky130_fd_sc_hd__tapvpwrvgnd_1
XTAP_60 VGND VPWR sky130_fd_sc_hd__tapvpwrvgnd_1
XTAP_82 VGND VPWR sky130_fd_sc_hd__tapvpwrvgnd_1
XTAP_93 VGND VPWR sky130_fd_sc_hd__tapvpwrvgnd_1
XFILLER_18_165 VGND VGND VPWR VPWR sky130_fd_sc_hd__decap_8
XFILLER_18_121 VGND VGND VPWR VPWR sky130_fd_sc_hd__decap_12
XFILLER_21_57 VGND VGND VPWR VPWR sky130_fd_sc_hd__decap_12
XFILLER_15_113 VGND VGND VPWR VPWR sky130_fd_sc_hd__decap_12
XFILLER_7_15 VGND VGND VPWR VPWR sky130_fd_sc_hd__decap_12
XFILLER_21_149 VGND VGND VPWR VPWR sky130_fd_sc_hd__decap_12
XFILLER_21_105 VGND VGND VPWR VPWR sky130_fd_sc_hd__decap_6
XFILLER_8_109 VGND VGND VPWR VPWR sky130_fd_sc_hd__decap_12
XFILLER_21_3 VGND VGND VPWR VPWR sky130_fd_sc_hd__decap_12
XFILLER_4_27 VGND VGND VPWR VPWR sky130_fd_sc_hd__fill_1
XFILLER_4_112 VGND VGND VPWR VPWR sky130_fd_sc_hd__decap_8
XFILLER_13_69 VGND VGND VPWR VPWR sky130_fd_sc_hd__decap_12
XFILLER_1_39 VGND VGND VPWR VPWR sky130_fd_sc_hd__decap_12
XFILLER_27_111 VGND VGND VPWR VPWR sky130_fd_sc_hd__fill_1
XFILLER_19_57 VGND VGND VPWR VPWR sky130_fd_sc_hd__decap_12
XTAP_61 VGND VPWR sky130_fd_sc_hd__tapvpwrvgnd_1
XTAP_72 VGND VPWR sky130_fd_sc_hd__tapvpwrvgnd_1
XTAP_83 VGND VPWR sky130_fd_sc_hd__tapvpwrvgnd_1
XFILLER_10_15 VGND VGND VPWR VPWR sky130_fd_sc_hd__decap_12
XTAP_94 VGND VPWR sky130_fd_sc_hd__tapvpwrvgnd_1
XFILLER_18_133 VGND VGND VPWR VPWR sky130_fd_sc_hd__decap_6
XFILLER_21_69 VGND VGND VPWR VPWR sky130_fd_sc_hd__decap_12
XFILLER_15_169 VGND VGND VPWR VPWR sky130_fd_sc_hd__decap_6
XFILLER_15_125 VGND VGND VPWR VPWR sky130_fd_sc_hd__decap_12
XFILLER_7_27 VGND VGND VPWR VPWR sky130_fd_sc_hd__decap_12
XFILLER_12_139 VGND VGND VPWR VPWR sky130_fd_sc_hd__fill_1
XFILLER_11_161 VGND VGND VPWR VPWR sky130_fd_sc_hd__decap_6
XFILLER_14_3 VGND VGND VPWR VPWR sky130_fd_sc_hd__decap_12
XFILLER_27_57 VGND VGND VPWR VPWR sky130_fd_sc_hd__decap_12
XFILLER_13_15 VGND VGND VPWR VPWR sky130_fd_sc_hd__decap_12
XFILLER_1_138 VGND VGND VPWR VPWR sky130_fd_sc_hd__decap_12
XFILLER_19_69 VGND VGND VPWR VPWR sky130_fd_sc_hd__decap_12
XTAP_62 VGND VPWR sky130_fd_sc_hd__tapvpwrvgnd_1
XTAP_73 VGND VPWR sky130_fd_sc_hd__tapvpwrvgnd_1
XTAP_84 VGND VPWR sky130_fd_sc_hd__tapvpwrvgnd_1
XFILLER_10_27 VGND VGND VPWR VPWR sky130_fd_sc_hd__fill_1
XTAP_95 VGND VPWR sky130_fd_sc_hd__tapvpwrvgnd_1
XFILLER_27_167 VGND VGND VPWR VPWR sky130_fd_sc_hd__fill_1
XFILLER_2_72 VGND VGND VPWR VPWR sky130_fd_sc_hd__decap_4
XFILLER_21_15 VGND VGND VPWR VPWR sky130_fd_sc_hd__decap_12
XFILLER_15_137 VGND VGND VPWR VPWR sky130_fd_sc_hd__decap_12
XFILLER_7_39 VGND VGND VPWR VPWR sky130_fd_sc_hd__decap_12
XFILLER_11_81 VGND VGND VPWR VPWR sky130_fd_sc_hd__decap_12
XFILLER_20_173 VGND VGND VPWR VPWR sky130_fd_sc_hd__fill_2
XFILLER_16_15 VGND VGND VPWR VPWR sky130_fd_sc_hd__decap_12
XFILLER_7_111 VGND VGND VPWR VPWR sky130_fd_sc_hd__fill_1
XFILLER_27_69 VGND VGND VPWR VPWR sky130_fd_sc_hd__decap_12
XFILLER_4_29 VGND VGND VPWR VPWR sky130_fd_sc_hd__decap_12
XFILLER_1_117 VGND VGND VPWR VPWR sky130_fd_sc_hd__fill_1
XFILLER_1_106 VGND VGND VPWR VPWR sky130_fd_sc_hd__decap_6
XFILLER_13_27 VGND VGND VPWR VPWR sky130_fd_sc_hd__decap_12
XFILLER_24_15 VGND VGND VPWR VPWR sky130_fd_sc_hd__decap_12
XTAP_63 VGND VPWR sky130_fd_sc_hd__tapvpwrvgnd_1
XTAP_74 VGND VPWR sky130_fd_sc_hd__tapvpwrvgnd_1
XTAP_85 VGND VPWR sky130_fd_sc_hd__tapvpwrvgnd_1
XTAP_96 VGND VPWR sky130_fd_sc_hd__tapvpwrvgnd_1
XFILLER_27_113 VGND VGND VPWR VPWR sky130_fd_sc_hd__decap_12
XFILLER_19_15 VGND VGND VPWR VPWR sky130_fd_sc_hd__decap_12
XFILLER_4_3 VGND VGND VPWR VPWR sky130_fd_sc_hd__decap_12
XFILLER_2_95 VGND VGND VPWR VPWR sky130_fd_sc_hd__decap_4
XFILLER_21_27 VGND VGND VPWR VPWR sky130_fd_sc_hd__decap_12
XFILLER_15_105 VGND VGND VPWR VPWR sky130_fd_sc_hd__decap_6
XFILLER_15_149 VGND VGND VPWR VPWR sky130_fd_sc_hd__decap_12
XFILLER_11_93 VGND VGND VPWR VPWR sky130_fd_sc_hd__decap_12
XFILLER_20_141 VGND VGND VPWR VPWR sky130_fd_sc_hd__decap_12
XFILLER_16_27 VGND VGND VPWR VPWR sky130_fd_sc_hd__fill_1
XFILLER_7_167 VGND VGND VPWR VPWR sky130_fd_sc_hd__fill_1
XFILLER_8_83 VGND VGND VPWR VPWR sky130_fd_sc_hd__fill_1
XFILLER_27_15 VGND VGND VPWR VPWR sky130_fd_sc_hd__decap_12
XFILLER_4_148 VGND VGND VPWR VPWR sky130_fd_sc_hd__decap_12
XFILLER_17_81 VGND VGND VPWR VPWR sky130_fd_sc_hd__decap_12
XFILLER_13_39 VGND VGND VPWR VPWR sky130_fd_sc_hd__decap_12
XFILLER_24_27 VGND VGND VPWR VPWR sky130_fd_sc_hd__fill_1
XFILLER_5_51 VGND VGND VPWR VPWR sky130_fd_sc_hd__decap_4
XFILLER_5_84 VGND VGND VPWR VPWR sky130_fd_sc_hd__decap_4
XTAP_64 VGND VPWR sky130_fd_sc_hd__tapvpwrvgnd_1
XTAP_75 VGND VPWR sky130_fd_sc_hd__tapvpwrvgnd_1
XTAP_86 VGND VPWR sky130_fd_sc_hd__tapvpwrvgnd_1
XTAP_97 VGND VPWR sky130_fd_sc_hd__tapvpwrvgnd_1
XFILLER_27_169 VGND VGND VPWR VPWR sky130_fd_sc_hd__decap_6
XFILLER_27_125 VGND VGND VPWR VPWR sky130_fd_sc_hd__decap_12
XFILLER_19_27 VGND VGND VPWR VPWR sky130_fd_sc_hd__decap_12
XFILLER_10_29 VGND VGND VPWR VPWR sky130_fd_sc_hd__decap_12
XFILLER_25_81 VGND VGND VPWR VPWR sky130_fd_sc_hd__decap_12
XFILLER_24_139 VGND VGND VPWR VPWR sky130_fd_sc_hd__fill_1
XFILLER_21_39 VGND VGND VPWR VPWR sky130_fd_sc_hd__decap_12
XFILLER_2_85 VGND VGND VPWR VPWR sky130_fd_sc_hd__decap_6
XFILLER_2_41 VGND VGND VPWR VPWR sky130_fd_sc_hd__decap_4
XFILLER_23_161 VGND VGND VPWR VPWR sky130_fd_sc_hd__decap_6
X_39_ _39_/A VGND VGND VPWR VPWR _39_/X sky130_fd_sc_hd__clkbuf_1
XFILLER_20_153 VGND VGND VPWR VPWR sky130_fd_sc_hd__decap_12
XFILLER_12_109 VGND VGND VPWR VPWR sky130_fd_sc_hd__decap_12
XFILLER_7_113 VGND VGND VPWR VPWR sky130_fd_sc_hd__decap_12
XFILLER_27_27 VGND VGND VPWR VPWR sky130_fd_sc_hd__decap_12
XFILLER_17_93 VGND VGND VPWR VPWR sky130_fd_sc_hd__decap_12
XFILLER_12_3 VGND VGND VPWR VPWR sky130_fd_sc_hd__decap_12
XFILLER_5_63 VGND VGND VPWR VPWR sky130_fd_sc_hd__fill_1
XTAP_65 VGND VPWR sky130_fd_sc_hd__tapvpwrvgnd_1
XTAP_76 VGND VPWR sky130_fd_sc_hd__tapvpwrvgnd_1
XTAP_87 VGND VPWR sky130_fd_sc_hd__tapvpwrvgnd_1
XTAP_98 VGND VPWR sky130_fd_sc_hd__tapvpwrvgnd_1
XFILLER_14_83 VGND VGND VPWR VPWR sky130_fd_sc_hd__fill_1
XFILLER_27_137 VGND VGND VPWR VPWR sky130_fd_sc_hd__decap_12
XFILLER_19_39 VGND VGND VPWR VPWR sky130_fd_sc_hd__decap_12
XFILLER_25_93 VGND VGND VPWR VPWR sky130_fd_sc_hd__decap_12
XFILLER_11_51 VGND VGND VPWR VPWR sky130_fd_sc_hd__decap_4
XFILLER_14_173 VGND VGND VPWR VPWR sky130_fd_sc_hd__fill_2
XFILLER_20_165 VGND VGND VPWR VPWR sky130_fd_sc_hd__decap_8
XFILLER_20_121 VGND VGND VPWR VPWR sky130_fd_sc_hd__decap_12
XFILLER_16_29 VGND VGND VPWR VPWR sky130_fd_sc_hd__decap_12
X_38_ _27_/A _40_/Q _21_/A _38_/B2 VGND VGND VPWR VPWR _40_/D sky130_fd_sc_hd__o22a_1
XFILLER_22_83 VGND VGND VPWR VPWR sky130_fd_sc_hd__fill_1
XFILLER_7_125 VGND VGND VPWR VPWR sky130_fd_sc_hd__decap_12
XFILLER_7_169 VGND VGND VPWR VPWR sky130_fd_sc_hd__decap_6
XFILLER_27_39 VGND VGND VPWR VPWR sky130_fd_sc_hd__decap_12
XFILLER_8_41 VGND VGND VPWR VPWR sky130_fd_sc_hd__decap_12
XFILLER_8_85 VGND VGND VPWR VPWR sky130_fd_sc_hd__decap_12
XFILLER_4_139 VGND VGND VPWR VPWR sky130_fd_sc_hd__fill_1
XFILLER_0_164 VGND VGND VPWR VPWR sky130_fd_sc_hd__decap_4
XFILLER_24_29 VGND VGND VPWR VPWR sky130_fd_sc_hd__decap_12
XFILLER_27_149 VGND VGND VPWR VPWR sky130_fd_sc_hd__decap_12
XFILLER_27_105 VGND VGND VPWR VPWR sky130_fd_sc_hd__decap_6
XTAP_66 VGND VPWR sky130_fd_sc_hd__tapvpwrvgnd_1
XTAP_77 VGND VPWR sky130_fd_sc_hd__tapvpwrvgnd_1
XTAP_88 VGND VPWR sky130_fd_sc_hd__tapvpwrvgnd_1
XTAP_99 VGND VPWR sky130_fd_sc_hd__tapvpwrvgnd_1
XPHY_50 VGND VGND VPWR VPWR sky130_fd_sc_hd__decap_3
XFILLER_2_65 VGND VGND VPWR VPWR sky130_fd_sc_hd__decap_4
XFILLER_2_3 VGND VGND VPWR VPWR sky130_fd_sc_hd__decap_12
XFILLER_14_141 VGND VGND VPWR VPWR sky130_fd_sc_hd__decap_12
XFILLER_20_133 VGND VGND VPWR VPWR sky130_fd_sc_hd__decap_6
X_37_ _39_/A VGND VGND VPWR VPWR _37_/X sky130_fd_sc_hd__clkbuf_1
XFILLER_7_137 VGND VGND VPWR VPWR sky130_fd_sc_hd__decap_12
XFILLER_11_111 VGND VGND VPWR VPWR sky130_fd_sc_hd__fill_1
XFILLER_8_53 VGND VGND VPWR VPWR sky130_fd_sc_hd__decap_12
XFILLER_8_97 VGND VGND VPWR VPWR sky130_fd_sc_hd__decap_12
XFILLER_17_51 VGND VGND VPWR VPWR sky130_fd_sc_hd__decap_4
XFILLER_28_83 VGND VGND VPWR VPWR sky130_fd_sc_hd__fill_1
XFILLER_14_41 VGND VGND VPWR VPWR sky130_fd_sc_hd__decap_12
XFILLER_14_85 VGND VGND VPWR VPWR sky130_fd_sc_hd__decap_12
XTAP_67 VGND VPWR sky130_fd_sc_hd__tapvpwrvgnd_1
XTAP_78 VGND VPWR sky130_fd_sc_hd__tapvpwrvgnd_1
XTAP_89 VGND VPWR sky130_fd_sc_hd__tapvpwrvgnd_1