* NGSPICE file created from Final_7_Flat.ext - technology: sky130A

.subckt Final_7_Flat VB OUT VP VCT VN
X0 VN a_1976_242# a_3194_252# VN sky130_fd_pr__nfet_01v8 ad=1.1619e+14p pd=7.7068e+08u as=2.445e+13p ps=1.5978e+08u w=5e+06u l=150000u
X1 VP a_n1606_2236# a_3230_5590# VP sky130_fd_pr__pfet_01v8 ad=1.1045e+14p pd=7.3294e+08u as=2.125e+13p ps=1.385e+08u w=5e+06u l=150000u
X2 VP a_n1606_2236# a_274_5606# VP sky130_fd_pr__pfet_01v8 ad=0p pd=0u as=2.125e+13p ps=1.385e+08u w=5e+06u l=150000u
X3 a_3230_5590# VCT VP VP sky130_fd_pr__pfet_01v8 ad=0p pd=0u as=0p ps=0u w=5e+06u l=150000u
X4 a_12504_5562# a_n1606_2236# VP VP sky130_fd_pr__pfet_01v8 ad=2.125e+13p pd=1.385e+08u as=0p ps=0u w=5e+06u l=150000u
X5 VN a_n1698_2236# a_238_268# VN sky130_fd_pr__nfet_01v8 ad=0p pd=0u as=2.445e+13p ps=1.5978e+08u w=5e+06u l=150000u
X6 a_12468_224# a_n1698_2236# VN VN sky130_fd_pr__nfet_01v8 ad=2.445e+13p pd=1.5978e+08u as=0p ps=0u w=5e+06u l=150000u
X7 VP VCT a_12504_5562# VP sky130_fd_pr__pfet_01v8 ad=0p pd=0u as=0p ps=0u w=5e+06u l=150000u
X8 a_1534_3844# OUT a_6260_5590# VP sky130_fd_pr__pfet_01v8 ad=3.3e+12p pd=2.132e+07u as=2.125e+13p ps=1.385e+08u w=5e+06u l=150000u
X9 a_1534_3844# a_4518_1814# a_6224_252# VN sky130_fd_pr__nfet_01v8 ad=3.59e+12p pd=2.39e+07u as=2.445e+13p ps=1.5978e+08u w=5e+06u l=150000u
X10 a_6260_5590# a_n1606_2236# VP VP sky130_fd_pr__pfet_01v8 ad=0p pd=0u as=0p ps=0u w=5e+06u l=150000u
X11 a_9312_250# a_1534_3844# a_4490_3828# VN sky130_fd_pr__nfet_01v8 ad=2.445e+13p pd=1.5978e+08u as=3.59e+12p ps=2.39e+07u w=5e+06u l=150000u
X12 a_n1698_2236# a_n1698_2236# VN VN sky130_fd_pr__nfet_01v8 ad=1.385e+13p pd=9.554e+07u as=0p ps=0u w=5e+06u l=200000u
X13 a_238_268# a_n1698_2236# VN VN sky130_fd_pr__nfet_01v8 ad=0p pd=0u as=0p ps=0u w=5e+06u l=150000u
X14 VN a_n1698_2236# a_3194_252# VN sky130_fd_pr__nfet_01v8 ad=0p pd=0u as=0p ps=0u w=5e+06u l=150000u
X15 a_9348_5588# a_n1606_2236# VP VP sky130_fd_pr__pfet_01v8 ad=2.125e+13p pd=1.385e+08u as=0p ps=0u w=5e+06u l=150000u
X16 VP VCT a_274_5606# VP sky130_fd_pr__pfet_01v8 ad=0p pd=0u as=0p ps=0u w=5e+06u l=150000u
X17 a_9348_5588# a_n1606_2236# VP VP sky130_fd_pr__pfet_01v8 ad=0p pd=0u as=0p ps=0u w=5e+06u l=150000u
X18 a_12504_5562# VCT VP VP sky130_fd_pr__pfet_01v8 ad=0p pd=0u as=0p ps=0u w=5e+06u l=150000u
X19 a_3194_252# a_n1698_2236# VN VN sky130_fd_pr__nfet_01v8 ad=0p pd=0u as=0p ps=0u w=5e+06u l=150000u
X20 VP a_n1606_2236# a_3230_5590# VP sky130_fd_pr__pfet_01v8 ad=0p pd=0u as=0p ps=0u w=5e+06u l=150000u
X21 a_12504_5562# a_4518_1814# OUT VP sky130_fd_pr__pfet_01v8 ad=0p pd=0u as=3.3e+12p ps=2.132e+07u w=5e+06u l=150000u
X22 a_6224_252# a_4518_1814# a_1534_3844# VN sky130_fd_pr__nfet_01v8 ad=0p pd=0u as=0p ps=0u w=5e+06u l=150000u
X23 a_9312_250# a_n1698_2236# VN VN sky130_fd_pr__nfet_01v8 ad=0p pd=0u as=0p ps=0u w=5e+06u l=150000u
X24 a_274_5606# VCT VP VP sky130_fd_pr__pfet_01v8 ad=0p pd=0u as=0p ps=0u w=5e+06u l=150000u
X25 a_1976_242# VN VP VP sky130_fd_pr__pfet_01v8 ad=3.3e+12p pd=2.066e+07u as=0p ps=0u w=1e+07u l=150000u
X26 VN a_n1698_2236# a_3194_252# VN sky130_fd_pr__nfet_01v8 ad=0p pd=0u as=0p ps=0u w=5e+06u l=150000u
X27 a_238_268# a_n1698_2236# VN VN sky130_fd_pr__nfet_01v8 ad=0p pd=0u as=0p ps=0u w=5e+06u l=150000u
X28 a_274_5606# VCT VP VP sky130_fd_pr__pfet_01v8 ad=0p pd=0u as=0p ps=0u w=5e+06u l=150000u
X29 a_9348_5588# VCT VP VP sky130_fd_pr__pfet_01v8 ad=0p pd=0u as=0p ps=0u w=5e+06u l=150000u
X30 a_12504_5562# a_n1606_2236# VP VP sky130_fd_pr__pfet_01v8 ad=0p pd=0u as=0p ps=0u w=5e+06u l=150000u
X31 a_1534_3844# OUT a_6260_5590# VP sky130_fd_pr__pfet_01v8 ad=0p pd=0u as=0p ps=0u w=5e+06u l=150000u
X32 VP VCT a_12504_5562# VP sky130_fd_pr__pfet_01v8 ad=0p pd=0u as=0p ps=0u w=5e+06u l=150000u
X33 VN a_1976_242# a_9312_250# VN sky130_fd_pr__nfet_01v8 ad=0p pd=0u as=0p ps=0u w=5e+06u l=150000u
X34 a_9312_250# a_1534_3844# a_4490_3828# VN sky130_fd_pr__nfet_01v8 ad=0p pd=0u as=0p ps=0u w=5e+06u l=150000u
X35 a_3230_5590# a_4490_3828# a_4518_1814# VP sky130_fd_pr__pfet_01v8 ad=0p pd=0u as=3.3e+12p ps=2.132e+07u w=5e+06u l=150000u
X36 VN a_n1698_2236# a_9312_250# VN sky130_fd_pr__nfet_01v8 ad=0p pd=0u as=0p ps=0u w=5e+06u l=150000u
X37 VP a_n1606_2236# a_274_5606# VP sky130_fd_pr__pfet_01v8 ad=0p pd=0u as=0p ps=0u w=5e+06u l=150000u
X38 a_1562_1830# a_1534_3844# a_274_5606# VP sky130_fd_pr__pfet_01v8 ad=3.3e+12p pd=2.132e+07u as=0p ps=0u w=5e+06u l=150000u
X39 a_9312_250# a_1976_242# VN VN sky130_fd_pr__nfet_01v8 ad=0p pd=0u as=0p ps=0u w=5e+06u l=150000u
X40 VP a_n1606_2236# a_6260_5590# VP sky130_fd_pr__pfet_01v8 ad=0p pd=0u as=0p ps=0u w=5e+06u l=150000u
X41 VP VCT a_9348_5588# VP sky130_fd_pr__pfet_01v8 ad=0p pd=0u as=0p ps=0u w=5e+06u l=150000u
X42 VP a_n1606_2236# a_12504_5562# VP sky130_fd_pr__pfet_01v8 ad=0p pd=0u as=0p ps=0u w=5e+06u l=150000u
X43 a_12504_5562# VCT VP VP sky130_fd_pr__pfet_01v8 ad=0p pd=0u as=0p ps=0u w=5e+06u l=150000u
X44 a_6224_252# a_n1698_2236# VN VN sky130_fd_pr__nfet_01v8 ad=0p pd=0u as=0p ps=0u w=5e+06u l=150000u
X45 a_n1606_2236# a_n1606_2236# VP VP sky130_fd_pr__pfet_01v8 ad=5.8e+12p pd=4.232e+07u as=0p ps=0u w=5e+06u l=200000u
X46 a_6260_5590# VCT VP VP sky130_fd_pr__pfet_01v8 ad=0p pd=0u as=0p ps=0u w=5e+06u l=150000u
X47 a_9312_250# a_n1698_2236# VN VN sky130_fd_pr__nfet_01v8 ad=0p pd=0u as=0p ps=0u w=5e+06u l=150000u
X48 a_6224_252# a_4518_1814# a_1534_3844# VN sky130_fd_pr__nfet_01v8 ad=0p pd=0u as=0p ps=0u w=5e+06u l=150000u
X49 a_238_268# a_1976_242# VN VN sky130_fd_pr__nfet_01v8 ad=0p pd=0u as=0p ps=0u w=5e+06u l=150000u
X50 VN a_1976_242# a_9312_250# VN sky130_fd_pr__nfet_01v8 ad=0p pd=0u as=0p ps=0u w=5e+06u l=150000u
X51 VP a_n1606_2236# a_9348_5588# VP sky130_fd_pr__pfet_01v8 ad=0p pd=0u as=0p ps=0u w=5e+06u l=150000u
X52 VN a_n1698_2236# a_3194_252# VN sky130_fd_pr__nfet_01v8 ad=0p pd=0u as=0p ps=0u w=5e+06u l=150000u
X53 a_274_5606# VCT VP VP sky130_fd_pr__pfet_01v8 ad=0p pd=0u as=0p ps=0u w=5e+06u l=150000u
X54 a_6260_5590# a_n1606_2236# VP VP sky130_fd_pr__pfet_01v8 ad=0p pd=0u as=0p ps=0u w=5e+06u l=150000u
X55 a_12468_224# a_1976_242# VN VN sky130_fd_pr__nfet_01v8 ad=0p pd=0u as=0p ps=0u w=5e+06u l=150000u
X56 VN a_n1698_2236# a_6224_252# VN sky130_fd_pr__nfet_01v8 ad=0p pd=0u as=0p ps=0u w=5e+06u l=150000u
X57 a_274_5606# VCT VP VP sky130_fd_pr__pfet_01v8 ad=0p pd=0u as=0p ps=0u w=5e+06u l=150000u
X58 a_12504_5562# a_n1606_2236# VP VP sky130_fd_pr__pfet_01v8 ad=0p pd=0u as=0p ps=0u w=5e+06u l=150000u
X59 VP VCT a_12504_5562# VP sky130_fd_pr__pfet_01v8 ad=0p pd=0u as=0p ps=0u w=5e+06u l=150000u
X60 VN a_1976_242# a_238_268# VN sky130_fd_pr__nfet_01v8 ad=0p pd=0u as=0p ps=0u w=5e+06u l=150000u
X61 a_6224_252# a_1976_242# VN VN sky130_fd_pr__nfet_01v8 ad=0p pd=0u as=0p ps=0u w=5e+06u l=150000u
X62 a_n1606_2236# a_n1606_2236# VP VP sky130_fd_pr__pfet_01v8 ad=0p pd=0u as=0p ps=0u w=5e+06u l=200000u
X63 a_9348_5588# VCT VP VP sky130_fd_pr__pfet_01v8 ad=0p pd=0u as=0p ps=0u w=5e+06u l=150000u
X64 a_12468_224# a_4490_3828# OUT VN sky130_fd_pr__nfet_01v8 ad=0p pd=0u as=3.59e+12p ps=2.39e+07u w=5e+06u l=150000u
X65 a_3230_5590# a_n1606_2236# VP VP sky130_fd_pr__pfet_01v8 ad=0p pd=0u as=0p ps=0u w=5e+06u l=150000u
X66 a_3194_252# a_n1698_2236# VN VN sky130_fd_pr__nfet_01v8 ad=0p pd=0u as=0p ps=0u w=5e+06u l=150000u
X67 VP a_n1606_2236# a_12504_5562# VP sky130_fd_pr__pfet_01v8 ad=0p pd=0u as=0p ps=0u w=5e+06u l=150000u
X68 VN a_1976_242# a_12468_224# VN sky130_fd_pr__nfet_01v8 ad=0p pd=0u as=0p ps=0u w=5e+06u l=150000u
X69 a_6224_252# a_n1698_2236# VN VN sky130_fd_pr__nfet_01v8 ad=0p pd=0u as=0p ps=0u w=5e+06u l=150000u
X70 a_3230_5590# a_4490_3828# a_4518_1814# VP sky130_fd_pr__pfet_01v8 ad=0p pd=0u as=0p ps=0u w=5e+06u l=150000u
X71 a_n1698_2236# a_n1698_2236# VN VN sky130_fd_pr__nfet_01v8 ad=0p pd=0u as=0p ps=0u w=5e+06u l=200000u
X72 VN a_1976_242# a_6224_252# VN sky130_fd_pr__nfet_01v8 ad=0p pd=0u as=0p ps=0u w=5e+06u l=150000u
X73 VN a_1976_242# a_3194_252# VN sky130_fd_pr__nfet_01v8 ad=0p pd=0u as=0p ps=0u w=5e+06u l=150000u
X74 VP VCT a_274_5606# VP sky130_fd_pr__pfet_01v8 ad=0p pd=0u as=0p ps=0u w=5e+06u l=150000u
X75 a_1562_1830# a_1534_3844# a_274_5606# VP sky130_fd_pr__pfet_01v8 ad=0p pd=0u as=0p ps=0u w=5e+06u l=150000u
X76 VP VN a_1976_242# VP sky130_fd_pr__pfet_01v8 ad=0p pd=0u as=0p ps=0u w=1e+07u l=150000u
X77 VP a_n1606_2236# a_6260_5590# VP sky130_fd_pr__pfet_01v8 ad=0p pd=0u as=0p ps=0u w=5e+06u l=150000u
X78 VP a_n1606_2236# a_12504_5562# VP sky130_fd_pr__pfet_01v8 ad=0p pd=0u as=0p ps=0u w=5e+06u l=150000u
X79 a_12468_224# a_n1698_2236# VN VN sky130_fd_pr__nfet_01v8 ad=0p pd=0u as=0p ps=0u w=5e+06u l=150000u
X80 VP VCT a_9348_5588# VP sky130_fd_pr__pfet_01v8 ad=0p pd=0u as=0p ps=0u w=5e+06u l=150000u
X81 VN a_n1698_2236# a_n1698_2236# VN sky130_fd_pr__nfet_01v8 ad=0p pd=0u as=0p ps=0u w=5e+06u l=200000u
X82 a_12504_5562# VCT VP VP sky130_fd_pr__pfet_01v8 ad=0p pd=0u as=0p ps=0u w=5e+06u l=150000u
X83 a_3194_252# a_1976_242# VN VN sky130_fd_pr__nfet_01v8 ad=0p pd=0u as=0p ps=0u w=5e+06u l=150000u
X84 a_6224_252# a_1976_242# VN VN sky130_fd_pr__nfet_01v8 ad=0p pd=0u as=0p ps=0u w=5e+06u l=150000u
X85 VN a_n1698_2236# a_12468_224# VN sky130_fd_pr__nfet_01v8 ad=0p pd=0u as=0p ps=0u w=5e+06u l=150000u
X86 a_4490_3828# a_1562_1830# VN VN sky130_fd_pr__nfet_01v8 ad=0p pd=0u as=0p ps=0u w=1e+06u l=500000u
X87 a_n1698_2236# a_n1698_2236# VN VN sky130_fd_pr__nfet_01v8 ad=0p pd=0u as=0p ps=0u w=5e+06u l=200000u
X88 VN a_n1698_2236# a_9312_250# VN sky130_fd_pr__nfet_01v8 ad=0p pd=0u as=0p ps=0u w=5e+06u l=150000u
X89 VP a_n1606_2236# a_n1606_2236# VP sky130_fd_pr__pfet_01v8 ad=0p pd=0u as=0p ps=0u w=5e+06u l=200000u
X90 a_6260_5590# a_n1606_2236# VP VP sky130_fd_pr__pfet_01v8 ad=0p pd=0u as=0p ps=0u w=5e+06u l=150000u
X91 a_274_5606# a_1534_3844# a_1562_1830# VP sky130_fd_pr__pfet_01v8 ad=0p pd=0u as=0p ps=0u w=5e+06u l=150000u
X92 a_274_5606# a_n1606_2236# VP VP sky130_fd_pr__pfet_01v8 ad=0p pd=0u as=0p ps=0u w=5e+06u l=150000u
X93 VP VCT a_6260_5590# VP sky130_fd_pr__pfet_01v8 ad=0p pd=0u as=0p ps=0u w=5e+06u l=150000u
X94 a_6260_5590# a_n1606_2236# VP VP sky130_fd_pr__pfet_01v8 ad=0p pd=0u as=0p ps=0u w=5e+06u l=150000u
X95 VP VCT a_12504_5562# VP sky130_fd_pr__pfet_01v8 ad=0p pd=0u as=0p ps=0u w=5e+06u l=150000u
X96 a_238_268# OUT a_1562_1830# VN sky130_fd_pr__nfet_01v8 ad=0p pd=0u as=3.59e+12p ps=2.39e+07u w=5e+06u l=150000u
X97 a_9348_5588# VCT VP VP sky130_fd_pr__pfet_01v8 ad=0p pd=0u as=0p ps=0u w=5e+06u l=150000u
X98 a_238_268# a_n1698_2236# VN VN sky130_fd_pr__nfet_01v8 ad=0p pd=0u as=0p ps=0u w=5e+06u l=150000u
X99 a_12468_224# a_1976_242# VN VN sky130_fd_pr__nfet_01v8 ad=0p pd=0u as=0p ps=0u w=5e+06u l=150000u
X100 a_1534_3844# a_4518_1814# a_6224_252# VN sky130_fd_pr__nfet_01v8 ad=0p pd=0u as=0p ps=0u w=5e+06u l=150000u
X101 VP a_n1606_2236# a_12504_5562# VP sky130_fd_pr__pfet_01v8 ad=0p pd=0u as=0p ps=0u w=5e+06u l=150000u
X102 VN a_n1698_2236# a_12468_224# VN sky130_fd_pr__nfet_01v8 ad=0p pd=0u as=0p ps=0u w=5e+06u l=150000u
X103 VP VCT a_274_5606# VP sky130_fd_pr__pfet_01v8 ad=0p pd=0u as=0p ps=0u w=5e+06u l=150000u
X104 VN a_n1698_2236# a_238_268# VN sky130_fd_pr__nfet_01v8 ad=0p pd=0u as=0p ps=0u w=5e+06u l=150000u
X105 VP a_n1606_2236# a_6260_5590# VP sky130_fd_pr__pfet_01v8 ad=0p pd=0u as=0p ps=0u w=5e+06u l=150000u
X106 a_3230_5590# VCT VP VP sky130_fd_pr__pfet_01v8 ad=0p pd=0u as=0p ps=0u w=5e+06u l=150000u
X107 a_6260_5590# VCT VP VP sky130_fd_pr__pfet_01v8 ad=0p pd=0u as=0p ps=0u w=5e+06u l=150000u
X108 VP a_n1606_2236# a_12504_5562# VP sky130_fd_pr__pfet_01v8 ad=0p pd=0u as=0p ps=0u w=5e+06u l=150000u
X109 VN a_n1698_2236# a_9312_250# VN sky130_fd_pr__nfet_01v8 ad=0p pd=0u as=0p ps=0u w=5e+06u l=150000u
X110 VP VCT a_9348_5588# VP sky130_fd_pr__pfet_01v8 ad=0p pd=0u as=0p ps=0u w=5e+06u l=150000u
X111 a_12468_224# a_n1698_2236# VN VN sky130_fd_pr__nfet_01v8 ad=0p pd=0u as=0p ps=0u w=5e+06u l=150000u
X112 a_9312_250# a_1976_242# VN VN sky130_fd_pr__nfet_01v8 ad=0p pd=0u as=0p ps=0u w=5e+06u l=150000u
X113 a_12504_5562# VCT VP VP sky130_fd_pr__pfet_01v8 ad=0p pd=0u as=0p ps=0u w=5e+06u l=150000u
X114 a_6224_252# a_1976_242# VN VN sky130_fd_pr__nfet_01v8 ad=0p pd=0u as=0p ps=0u w=5e+06u l=150000u
X115 VP a_n1606_2236# a_n1606_2236# VP sky130_fd_pr__pfet_01v8 ad=0p pd=0u as=0p ps=0u w=5e+06u l=200000u
X116 a_12504_5562# a_n1606_2236# VP VP sky130_fd_pr__pfet_01v8 ad=0p pd=0u as=0p ps=0u w=5e+06u l=150000u
X117 a_4518_1814# a_4490_3828# a_3230_5590# VP sky130_fd_pr__pfet_01v8 ad=0p pd=0u as=0p ps=0u w=5e+06u l=150000u
X118 a_9312_250# a_n1698_2236# VN VN sky130_fd_pr__nfet_01v8 ad=0p pd=0u as=0p ps=0u w=5e+06u l=150000u
X119 a_274_5606# a_1534_3844# a_1562_1830# VP sky130_fd_pr__pfet_01v8 ad=0p pd=0u as=0p ps=0u w=5e+06u l=150000u
X120 a_274_5606# a_n1606_2236# VP VP sky130_fd_pr__pfet_01v8 ad=0p pd=0u as=0p ps=0u w=5e+06u l=150000u
X121 a_6260_5590# a_n1606_2236# VP VP sky130_fd_pr__pfet_01v8 ad=0p pd=0u as=0p ps=0u w=5e+06u l=150000u
X122 VP VCT a_6260_5590# VP sky130_fd_pr__pfet_01v8 ad=0p pd=0u as=0p ps=0u w=5e+06u l=150000u
X123 a_9348_5588# a_n1606_2236# VP VP sky130_fd_pr__pfet_01v8 ad=0p pd=0u as=0p ps=0u w=5e+06u l=150000u
X124 a_4490_3828# a_1562_1830# a_9348_5588# VP sky130_fd_pr__pfet_01v8 ad=3.3e+12p pd=2.132e+07u as=0p ps=0u w=5e+06u l=150000u
X125 a_238_268# a_n1698_2236# VN VN sky130_fd_pr__nfet_01v8 ad=0p pd=0u as=0p ps=0u w=5e+06u l=150000u
X126 a_9348_5588# VCT VP VP sky130_fd_pr__pfet_01v8 ad=0p pd=0u as=0p ps=0u w=5e+06u l=150000u
X127 a_4518_1814# a_1562_1830# a_3194_252# VN sky130_fd_pr__nfet_01v8 ad=3.59e+12p pd=2.39e+07u as=0p ps=0u w=5e+06u l=150000u
X128 OUT a_4518_1814# VN VN sky130_fd_pr__nfet_01v8 ad=0p pd=0u as=0p ps=0u w=1e+06u l=500000u
X129 a_12468_224# a_1976_242# VN VN sky130_fd_pr__nfet_01v8 ad=0p pd=0u as=0p ps=0u w=5e+06u l=150000u
X130 VN a_n1698_2236# a_9312_250# VN sky130_fd_pr__nfet_01v8 ad=0p pd=0u as=0p ps=0u w=5e+06u l=150000u
X131 VN a_n1698_2236# a_6224_252# VN sky130_fd_pr__nfet_01v8 ad=0p pd=0u as=0p ps=0u w=5e+06u l=150000u
X132 a_n1698_2236# VB a_n1606_2236# VN sky130_fd_pr__nfet_01v8 ad=0p pd=0u as=6.6e+12p ps=4.264e+07u w=5e+06u l=150000u
X133 VN a_1976_242# a_238_268# VN sky130_fd_pr__nfet_01v8 ad=0p pd=0u as=0p ps=0u w=5e+06u l=150000u
X134 a_1976_242# VCT VN VN sky130_fd_pr__nfet_01v8 ad=1.74e+12p pd=1.258e+07u as=0p ps=0u w=6e+06u l=150000u
X135 VN a_1976_242# a_9312_250# VN sky130_fd_pr__nfet_01v8 ad=0p pd=0u as=0p ps=0u w=5e+06u l=150000u
X136 a_3194_252# a_1976_242# VN VN sky130_fd_pr__nfet_01v8 ad=0p pd=0u as=0p ps=0u w=5e+06u l=150000u
X137 VN a_n1698_2236# a_238_268# VN sky130_fd_pr__nfet_01v8 ad=0p pd=0u as=0p ps=0u w=5e+06u l=150000u
X138 a_6224_252# a_n1698_2236# VN VN sky130_fd_pr__nfet_01v8 ad=0p pd=0u as=0p ps=0u w=5e+06u l=150000u
X139 VP a_n1606_2236# a_274_5606# VP sky130_fd_pr__pfet_01v8 ad=0p pd=0u as=0p ps=0u w=5e+06u l=150000u
X140 VP a_n1606_2236# a_6260_5590# VP sky130_fd_pr__pfet_01v8 ad=0p pd=0u as=0p ps=0u w=5e+06u l=150000u
X141 VN a_1976_242# a_12468_224# VN sky130_fd_pr__nfet_01v8 ad=0p pd=0u as=0p ps=0u w=5e+06u l=150000u
X142 a_3194_252# a_1562_1830# a_4518_1814# VN sky130_fd_pr__nfet_01v8 ad=0p pd=0u as=0p ps=0u w=5e+06u l=150000u
X143 a_9312_250# a_1976_242# VN VN sky130_fd_pr__nfet_01v8 ad=0p pd=0u as=0p ps=0u w=5e+06u l=150000u
X144 VN a_1976_242# a_6224_252# VN sky130_fd_pr__nfet_01v8 ad=0p pd=0u as=0p ps=0u w=5e+06u l=150000u
X145 VN a_1976_242# a_3194_252# VN sky130_fd_pr__nfet_01v8 ad=0p pd=0u as=0p ps=0u w=5e+06u l=150000u
X146 VN a_1976_242# a_238_268# VN sky130_fd_pr__nfet_01v8 ad=0p pd=0u as=0p ps=0u w=5e+06u l=150000u
X147 a_1562_1830# OUT a_238_268# VN sky130_fd_pr__nfet_01v8 ad=0p pd=0u as=0p ps=0u w=5e+06u l=150000u
X148 VP VCT a_9348_5588# VP sky130_fd_pr__pfet_01v8 ad=0p pd=0u as=0p ps=0u w=5e+06u l=150000u
X149 a_238_268# a_n1698_2236# VN VN sky130_fd_pr__nfet_01v8 ad=0p pd=0u as=0p ps=0u w=5e+06u l=150000u
X150 a_9312_250# a_n1698_2236# VN VN sky130_fd_pr__nfet_01v8 ad=0p pd=0u as=0p ps=0u w=5e+06u l=150000u
X151 OUT a_4518_1814# a_12504_5562# VP sky130_fd_pr__pfet_01v8 ad=0p pd=0u as=0p ps=0u w=5e+06u l=150000u
X152 a_1562_1830# a_1534_3844# VN VN sky130_fd_pr__nfet_01v8 ad=0p pd=0u as=0p ps=0u w=1e+06u l=500000u
X153 a_12468_224# a_4490_3828# OUT VN sky130_fd_pr__nfet_01v8 ad=0p pd=0u as=0p ps=0u w=5e+06u l=150000u
X154 a_6224_252# a_n1698_2236# VN VN sky130_fd_pr__nfet_01v8 ad=0p pd=0u as=0p ps=0u w=5e+06u l=150000u
X155 a_3194_252# a_n1698_2236# VN VN sky130_fd_pr__nfet_01v8 ad=0p pd=0u as=0p ps=0u w=5e+06u l=150000u
X156 a_3230_5590# a_n1606_2236# VP VP sky130_fd_pr__pfet_01v8 ad=0p pd=0u as=0p ps=0u w=5e+06u l=150000u
X157 a_n1606_2236# VB a_n1698_2236# VN sky130_fd_pr__nfet_01v8 ad=0p pd=0u as=0p ps=0u w=5e+06u l=150000u
X158 a_n1698_2236# a_n1698_2236# VN VN sky130_fd_pr__nfet_01v8 ad=0p pd=0u as=0p ps=0u w=5e+06u l=200000u
X159 a_12468_224# a_1976_242# VN VN sky130_fd_pr__nfet_01v8 ad=0p pd=0u as=0p ps=0u w=5e+06u l=150000u
X160 a_274_5606# a_n1606_2236# VP VP sky130_fd_pr__pfet_01v8 ad=0p pd=0u as=0p ps=0u w=5e+06u l=150000u
X161 VP VCT a_3230_5590# VP sky130_fd_pr__pfet_01v8 ad=0p pd=0u as=0p ps=0u w=5e+06u l=150000u
X162 a_12504_5562# a_n1606_2236# VP VP sky130_fd_pr__pfet_01v8 ad=0p pd=0u as=0p ps=0u w=5e+06u l=150000u
X163 a_6224_252# a_1976_242# VN VN sky130_fd_pr__nfet_01v8 ad=0p pd=0u as=0p ps=0u w=5e+06u l=150000u
X164 a_238_268# a_1976_242# VN VN sky130_fd_pr__nfet_01v8 ad=0p pd=0u as=0p ps=0u w=5e+06u l=150000u
X165 a_4518_1814# a_4490_3828# a_3230_5590# VP sky130_fd_pr__pfet_01v8 ad=0p pd=0u as=0p ps=0u w=5e+06u l=150000u
X166 a_6260_5590# a_n1606_2236# VP VP sky130_fd_pr__pfet_01v8 ad=0p pd=0u as=0p ps=0u w=5e+06u l=150000u
X167 VP VCT a_6260_5590# VP sky130_fd_pr__pfet_01v8 ad=0p pd=0u as=0p ps=0u w=5e+06u l=150000u
X168 a_9348_5588# a_n1606_2236# VP VP sky130_fd_pr__pfet_01v8 ad=0p pd=0u as=0p ps=0u w=5e+06u l=150000u
X169 VN a_n1698_2236# a_6224_252# VN sky130_fd_pr__nfet_01v8 ad=0p pd=0u as=0p ps=0u w=5e+06u l=150000u
X170 VN a_n1698_2236# a_3194_252# VN sky130_fd_pr__nfet_01v8 ad=0p pd=0u as=0p ps=0u w=5e+06u l=150000u
X171 a_9312_250# a_1976_242# VN VN sky130_fd_pr__nfet_01v8 ad=0p pd=0u as=0p ps=0u w=5e+06u l=150000u
X172 VN a_1976_242# a_6224_252# VN sky130_fd_pr__nfet_01v8 ad=0p pd=0u as=0p ps=0u w=5e+06u l=150000u
X173 a_3194_252# a_1976_242# VN VN sky130_fd_pr__nfet_01v8 ad=0p pd=0u as=0p ps=0u w=5e+06u l=150000u
X174 VN a_1976_242# a_238_268# VN sky130_fd_pr__nfet_01v8 ad=0p pd=0u as=0p ps=0u w=5e+06u l=150000u
X175 a_6224_252# a_1976_242# VN VN sky130_fd_pr__nfet_01v8 ad=0p pd=0u as=0p ps=0u w=5e+06u l=150000u
X176 a_n1698_2236# VB a_n1606_2236# VN sky130_fd_pr__nfet_01v8 ad=0p pd=0u as=0p ps=0u w=5e+06u l=150000u
X177 VP a_n1606_2236# a_274_5606# VP sky130_fd_pr__pfet_01v8 ad=0p pd=0u as=0p ps=0u w=5e+06u l=150000u
X178 VP a_n1606_2236# a_3230_5590# VP sky130_fd_pr__pfet_01v8 ad=0p pd=0u as=0p ps=0u w=5e+06u l=150000u
X179 VP a_n1606_2236# a_12504_5562# VP sky130_fd_pr__pfet_01v8 ad=0p pd=0u as=0p ps=0u w=5e+06u l=150000u
X180 VN a_n1698_2236# a_238_268# VN sky130_fd_pr__nfet_01v8 ad=0p pd=0u as=0p ps=0u w=5e+06u l=150000u
X181 VN a_1976_242# a_12468_224# VN sky130_fd_pr__nfet_01v8 ad=0p pd=0u as=0p ps=0u w=5e+06u l=150000u
X182 a_3194_252# a_n1698_2236# VN VN sky130_fd_pr__nfet_01v8 ad=0p pd=0u as=0p ps=0u w=5e+06u l=150000u
X183 a_3230_5590# VCT VP VP sky130_fd_pr__pfet_01v8 ad=0p pd=0u as=0p ps=0u w=5e+06u l=150000u
X184 a_n1698_2236# VB a_n1606_2236# VN sky130_fd_pr__nfet_01v8 ad=0p pd=0u as=0p ps=0u w=5e+06u l=150000u
X185 VN a_1976_242# a_6224_252# VN sky130_fd_pr__nfet_01v8 ad=0p pd=0u as=0p ps=0u w=5e+06u l=150000u
X186 VN a_1976_242# a_3194_252# VN sky130_fd_pr__nfet_01v8 ad=0p pd=0u as=0p ps=0u w=5e+06u l=150000u
X187 a_6260_5590# VCT VP VP sky130_fd_pr__pfet_01v8 ad=0p pd=0u as=0p ps=0u w=5e+06u l=150000u
X188 VP a_n1606_2236# a_9348_5588# VP sky130_fd_pr__pfet_01v8 ad=0p pd=0u as=0p ps=0u w=5e+06u l=150000u
X189 a_9348_5588# a_1562_1830# a_4490_3828# VP sky130_fd_pr__pfet_01v8 ad=0p pd=0u as=0p ps=0u w=5e+06u l=150000u
X190 VN a_n1698_2236# a_12468_224# VN sky130_fd_pr__nfet_01v8 ad=0p pd=0u as=0p ps=0u w=5e+06u l=150000u
X191 a_3194_252# a_1562_1830# a_4518_1814# VN sky130_fd_pr__nfet_01v8 ad=0p pd=0u as=0p ps=0u w=5e+06u l=150000u
X192 VN a_n1698_2236# a_6224_252# VN sky130_fd_pr__nfet_01v8 ad=0p pd=0u as=0p ps=0u w=5e+06u l=150000u
X193 a_1562_1830# OUT a_238_268# VN sky130_fd_pr__nfet_01v8 ad=0p pd=0u as=0p ps=0u w=5e+06u l=150000u
X194 a_12468_224# a_1976_242# VN VN sky130_fd_pr__nfet_01v8 ad=0p pd=0u as=0p ps=0u w=5e+06u l=150000u
X195 a_n1606_2236# VB a_n1698_2236# VN sky130_fd_pr__nfet_01v8 ad=0p pd=0u as=0p ps=0u w=5e+06u l=150000u
X196 a_3230_5590# a_n1606_2236# VP VP sky130_fd_pr__pfet_01v8 ad=0p pd=0u as=0p ps=0u w=5e+06u l=150000u
X197 OUT a_4518_1814# a_12504_5562# VP sky130_fd_pr__pfet_01v8 ad=0p pd=0u as=0p ps=0u w=5e+06u l=150000u
X198 a_3194_252# a_1976_242# VN VN sky130_fd_pr__nfet_01v8 ad=0p pd=0u as=0p ps=0u w=5e+06u l=150000u
X199 a_274_5606# a_n1606_2236# VP VP sky130_fd_pr__pfet_01v8 ad=0p pd=0u as=0p ps=0u w=5e+06u l=150000u
X200 a_12504_5562# a_n1606_2236# VP VP sky130_fd_pr__pfet_01v8 ad=0p pd=0u as=0p ps=0u w=5e+06u l=150000u
X201 a_12468_224# a_n1698_2236# VN VN sky130_fd_pr__nfet_01v8 ad=0p pd=0u as=0p ps=0u w=5e+06u l=150000u
X202 VP VCT a_3230_5590# VP sky130_fd_pr__pfet_01v8 ad=0p pd=0u as=0p ps=0u w=5e+06u l=150000u
X203 a_9348_5588# a_n1606_2236# VP VP sky130_fd_pr__pfet_01v8 ad=0p pd=0u as=0p ps=0u w=5e+06u l=150000u
X204 a_6260_5590# OUT a_1534_3844# VP sky130_fd_pr__pfet_01v8 ad=0p pd=0u as=0p ps=0u w=5e+06u l=150000u
X205 VN a_n1698_2236# a_238_268# VN sky130_fd_pr__nfet_01v8 ad=0p pd=0u as=0p ps=0u w=5e+06u l=150000u
X206 VN a_n1698_2236# a_12468_224# VN sky130_fd_pr__nfet_01v8 ad=0p pd=0u as=0p ps=0u w=5e+06u l=150000u
X207 a_6224_252# a_n1698_2236# VN VN sky130_fd_pr__nfet_01v8 ad=0p pd=0u as=0p ps=0u w=5e+06u l=150000u
X208 a_4518_1814# a_4490_3828# VN VN sky130_fd_pr__nfet_01v8 ad=0p pd=0u as=0p ps=0u w=1e+06u l=500000u
X209 VP VCT a_6260_5590# VP sky130_fd_pr__pfet_01v8 ad=0p pd=0u as=0p ps=0u w=5e+06u l=150000u
X210 VP a_n1606_2236# a_n1606_2236# VP sky130_fd_pr__pfet_01v8 ad=0p pd=0u as=0p ps=0u w=5e+06u l=200000u
X211 a_238_268# OUT a_1562_1830# VN sky130_fd_pr__nfet_01v8 ad=0p pd=0u as=0p ps=0u w=5e+06u l=150000u
X212 VN a_n1698_2236# a_n1698_2236# VN sky130_fd_pr__nfet_01v8 ad=0p pd=0u as=0p ps=0u w=5e+06u l=200000u
X213 VP a_n1606_2236# a_6260_5590# VP sky130_fd_pr__pfet_01v8 ad=0p pd=0u as=0p ps=0u w=5e+06u l=150000u
X214 OUT a_4490_3828# a_12468_224# VN sky130_fd_pr__nfet_01v8 ad=0p pd=0u as=0p ps=0u w=5e+06u l=150000u
X215 a_238_268# a_n1698_2236# VN VN sky130_fd_pr__nfet_01v8 ad=0p pd=0u as=0p ps=0u w=5e+06u l=150000u
X216 VN a_n1698_2236# a_6224_252# VN sky130_fd_pr__nfet_01v8 ad=0p pd=0u as=0p ps=0u w=5e+06u l=150000u
X217 VP a_n1606_2236# a_274_5606# VP sky130_fd_pr__pfet_01v8 ad=0p pd=0u as=0p ps=0u w=5e+06u l=150000u
X218 a_n1698_2236# VB a_n1606_2236# VN sky130_fd_pr__nfet_01v8 ad=0p pd=0u as=0p ps=0u w=5e+06u l=150000u
X219 VP a_n1606_2236# a_3230_5590# VP sky130_fd_pr__pfet_01v8 ad=0p pd=0u as=0p ps=0u w=5e+06u l=150000u
X220 VP a_n1606_2236# a_9348_5588# VP sky130_fd_pr__pfet_01v8 ad=0p pd=0u as=0p ps=0u w=5e+06u l=150000u
X221 a_9348_5588# a_1562_1830# a_4490_3828# VP sky130_fd_pr__pfet_01v8 ad=0p pd=0u as=0p ps=0u w=5e+06u l=150000u
X222 VN a_n1698_2236# a_12468_224# VN sky130_fd_pr__nfet_01v8 ad=0p pd=0u as=0p ps=0u w=5e+06u l=150000u
X223 VP a_n1606_2236# a_n1606_2236# VP sky130_fd_pr__pfet_01v8 ad=0p pd=0u as=0p ps=0u w=5e+06u l=200000u
X224 a_6260_5590# VCT VP VP sky130_fd_pr__pfet_01v8 ad=0p pd=0u as=0p ps=0u w=5e+06u l=150000u
X225 a_238_268# a_1976_242# VN VN sky130_fd_pr__nfet_01v8 ad=0p pd=0u as=0p ps=0u w=5e+06u l=150000u
X226 VP a_n1606_2236# a_9348_5588# VP sky130_fd_pr__pfet_01v8 ad=0p pd=0u as=0p ps=0u w=5e+06u l=150000u
X227 VN a_n1698_2236# a_n1698_2236# VN sky130_fd_pr__nfet_01v8 ad=0p pd=0u as=0p ps=0u w=5e+06u l=200000u
X228 VN a_n1698_2236# a_238_268# VN sky130_fd_pr__nfet_01v8 ad=0p pd=0u as=0p ps=0u w=5e+06u l=150000u
X229 VN a_n1698_2236# a_9312_250# VN sky130_fd_pr__nfet_01v8 ad=0p pd=0u as=0p ps=0u w=5e+06u l=150000u
X230 a_9312_250# a_1976_242# VN VN sky130_fd_pr__nfet_01v8 ad=0p pd=0u as=0p ps=0u w=5e+06u l=150000u
X231 a_n1606_2236# VB a_n1698_2236# VN sky130_fd_pr__nfet_01v8 ad=0p pd=0u as=0p ps=0u w=5e+06u l=150000u
X232 a_12468_224# a_n1698_2236# VN VN sky130_fd_pr__nfet_01v8 ad=0p pd=0u as=0p ps=0u w=5e+06u l=150000u
X233 a_3194_252# a_1976_242# VN VN sky130_fd_pr__nfet_01v8 ad=0p pd=0u as=0p ps=0u w=5e+06u l=150000u
X234 a_3230_5590# a_n1606_2236# VP VP sky130_fd_pr__pfet_01v8 ad=0p pd=0u as=0p ps=0u w=5e+06u l=150000u
X235 a_n1606_2236# a_n1606_2236# VP VP sky130_fd_pr__pfet_01v8 ad=0p pd=0u as=0p ps=0u w=5e+06u l=200000u
X236 a_274_5606# a_n1606_2236# VP VP sky130_fd_pr__pfet_01v8 ad=0p pd=0u as=0p ps=0u w=5e+06u l=150000u
X237 VP VCT a_3230_5590# VP sky130_fd_pr__pfet_01v8 ad=0p pd=0u as=0p ps=0u w=5e+06u l=150000u
X238 a_3230_5590# a_n1606_2236# VP VP sky130_fd_pr__pfet_01v8 ad=0p pd=0u as=0p ps=0u w=5e+06u l=150000u
X239 a_6260_5590# OUT a_1534_3844# VP sky130_fd_pr__pfet_01v8 ad=0p pd=0u as=0p ps=0u w=5e+06u l=150000u
X240 a_9312_250# a_n1698_2236# VN VN sky130_fd_pr__nfet_01v8 ad=0p pd=0u as=0p ps=0u w=5e+06u l=150000u
X241 a_4490_3828# a_1562_1830# a_9348_5588# VP sky130_fd_pr__pfet_01v8 ad=0p pd=0u as=0p ps=0u w=5e+06u l=150000u
X242 VN a_n1698_2236# a_n1698_2236# VN sky130_fd_pr__nfet_01v8 ad=0p pd=0u as=0p ps=0u w=5e+06u l=200000u
X243 a_238_268# a_1976_242# VN VN sky130_fd_pr__nfet_01v8 ad=0p pd=0u as=0p ps=0u w=5e+06u l=150000u
X244 VN a_1976_242# a_9312_250# VN sky130_fd_pr__nfet_01v8 ad=0p pd=0u as=0p ps=0u w=5e+06u l=150000u
X245 a_4518_1814# a_1562_1830# a_3194_252# VN sky130_fd_pr__nfet_01v8 ad=0p pd=0u as=0p ps=0u w=5e+06u l=150000u
X246 VP a_n1606_2236# a_6260_5590# VP sky130_fd_pr__pfet_01v8 ad=0p pd=0u as=0p ps=0u w=5e+06u l=150000u
X247 a_12504_5562# a_4518_1814# OUT VP sky130_fd_pr__pfet_01v8 ad=0p pd=0u as=0p ps=0u w=5e+06u l=150000u
X248 a_1534_3844# OUT VN VN sky130_fd_pr__nfet_01v8 ad=0p pd=0u as=0p ps=0u w=1e+06u l=500000u
X249 a_4490_3828# a_1534_3844# a_9312_250# VN sky130_fd_pr__nfet_01v8 ad=0p pd=0u as=0p ps=0u w=5e+06u l=150000u
X250 OUT a_4490_3828# a_12468_224# VN sky130_fd_pr__nfet_01v8 ad=0p pd=0u as=0p ps=0u w=5e+06u l=150000u
X251 VN a_n1698_2236# a_6224_252# VN sky130_fd_pr__nfet_01v8 ad=0p pd=0u as=0p ps=0u w=5e+06u l=150000u
X252 VN a_n1698_2236# a_3194_252# VN sky130_fd_pr__nfet_01v8 ad=0p pd=0u as=0p ps=0u w=5e+06u l=150000u
X253 a_n1606_2236# a_n1606_2236# VP VP sky130_fd_pr__pfet_01v8 ad=0p pd=0u as=0p ps=0u w=5e+06u l=200000u
X254 VP a_n1606_2236# a_3230_5590# VP sky130_fd_pr__pfet_01v8 ad=0p pd=0u as=0p ps=0u w=5e+06u l=150000u
X255 VP a_n1606_2236# a_9348_5588# VP sky130_fd_pr__pfet_01v8 ad=0p pd=0u as=0p ps=0u w=5e+06u l=150000u
X256 a_12468_224# a_1976_242# VN VN sky130_fd_pr__nfet_01v8 ad=0p pd=0u as=0p ps=0u w=5e+06u l=150000u
X257 VP a_n1606_2236# a_274_5606# VP sky130_fd_pr__pfet_01v8 ad=0p pd=0u as=0p ps=0u w=5e+06u l=150000u
X258 a_3230_5590# VCT VP VP sky130_fd_pr__pfet_01v8 ad=0p pd=0u as=0p ps=0u w=5e+06u l=150000u
X259 VN a_1976_242# a_238_268# VN sky130_fd_pr__nfet_01v8 ad=0p pd=0u as=0p ps=0u w=5e+06u l=150000u
X260 VN a_1976_242# a_9312_250# VN sky130_fd_pr__nfet_01v8 ad=0p pd=0u as=0p ps=0u w=5e+06u l=150000u
X261 VP a_n1606_2236# a_9348_5588# VP sky130_fd_pr__pfet_01v8 ad=0p pd=0u as=0p ps=0u w=5e+06u l=150000u
X262 VN a_1976_242# a_12468_224# VN sky130_fd_pr__nfet_01v8 ad=0p pd=0u as=0p ps=0u w=5e+06u l=150000u
X263 a_6224_252# a_n1698_2236# VN VN sky130_fd_pr__nfet_01v8 ad=0p pd=0u as=0p ps=0u w=5e+06u l=150000u
X264 a_3194_252# a_n1698_2236# VN VN sky130_fd_pr__nfet_01v8 ad=0p pd=0u as=0p ps=0u w=5e+06u l=150000u
X265 VN a_1976_242# a_6224_252# VN sky130_fd_pr__nfet_01v8 ad=0p pd=0u as=0p ps=0u w=5e+06u l=150000u
X266 VN a_1976_242# a_3194_252# VN sky130_fd_pr__nfet_01v8 ad=0p pd=0u as=0p ps=0u w=5e+06u l=150000u
X267 a_238_268# a_1976_242# VN VN sky130_fd_pr__nfet_01v8 ad=0p pd=0u as=0p ps=0u w=5e+06u l=150000u
X268 a_9312_250# a_1976_242# VN VN sky130_fd_pr__nfet_01v8 ad=0p pd=0u as=0p ps=0u w=5e+06u l=150000u
X269 a_n1606_2236# VB a_n1698_2236# VN sky130_fd_pr__nfet_01v8 ad=0p pd=0u as=0p ps=0u w=5e+06u l=150000u
X270 a_12468_224# a_n1698_2236# VN VN sky130_fd_pr__nfet_01v8 ad=0p pd=0u as=0p ps=0u w=5e+06u l=150000u
X271 a_274_5606# a_n1606_2236# VP VP sky130_fd_pr__pfet_01v8 ad=0p pd=0u as=0p ps=0u w=5e+06u l=150000u
X272 a_9312_250# a_n1698_2236# VN VN sky130_fd_pr__nfet_01v8 ad=0p pd=0u as=0p ps=0u w=5e+06u l=150000u
X273 a_3230_5590# a_n1606_2236# VP VP sky130_fd_pr__pfet_01v8 ad=0p pd=0u as=0p ps=0u w=5e+06u l=150000u
X274 a_9348_5588# a_n1606_2236# VP VP sky130_fd_pr__pfet_01v8 ad=0p pd=0u as=0p ps=0u w=5e+06u l=150000u
X275 a_3194_252# a_n1698_2236# VN VN sky130_fd_pr__nfet_01v8 ad=0p pd=0u as=0p ps=0u w=5e+06u l=150000u
X276 VP VCT a_274_5606# VP sky130_fd_pr__pfet_01v8 ad=0p pd=0u as=0p ps=0u w=5e+06u l=150000u
X277 VP VCT a_3230_5590# VP sky130_fd_pr__pfet_01v8 ad=0p pd=0u as=0p ps=0u w=5e+06u l=150000u
X278 a_6224_252# a_1976_242# VN VN sky130_fd_pr__nfet_01v8 ad=0p pd=0u as=0p ps=0u w=5e+06u l=150000u
X279 a_3194_252# a_1976_242# VN VN sky130_fd_pr__nfet_01v8 ad=0p pd=0u as=0p ps=0u w=5e+06u l=150000u
X280 a_238_268# a_1976_242# VN VN sky130_fd_pr__nfet_01v8 ad=0p pd=0u as=0p ps=0u w=5e+06u l=150000u
X281 VP a_n1606_2236# a_3230_5590# VP sky130_fd_pr__pfet_01v8 ad=0p pd=0u as=0p ps=0u w=5e+06u l=150000u
X282 VN a_n1698_2236# a_12468_224# VN sky130_fd_pr__nfet_01v8 ad=0p pd=0u as=0p ps=0u w=5e+06u l=150000u
X283 a_4490_3828# a_1534_3844# a_9312_250# VN sky130_fd_pr__nfet_01v8 ad=0p pd=0u as=0p ps=0u w=5e+06u l=150000u
X284 VN a_1976_242# a_12468_224# VN sky130_fd_pr__nfet_01v8 ad=0p pd=0u as=0p ps=0u w=5e+06u l=150000u
X285 VN a_n1698_2236# a_9312_250# VN sky130_fd_pr__nfet_01v8 ad=0p pd=0u as=0p ps=0u w=5e+06u l=150000u